@<TRIPOS>MOLECULE
*****
   29    29     0     0     0
SMALL
NO_CHARGES

@<TRIPOS>ATOM
      1 C1         -6.3848   -0.1105    1.4798 C.ar      1 UNL1        0.0000
      2 C2         -5.8675   -1.0860    0.6275 C.ar      1 UNL1        0.0000
      3 C3         -5.6354    1.0292    1.7717 C.ar      1 UNL1        0.0000
      4 C4         -4.6007   -0.9219    0.0673 C.ar      1 UNL1        0.0000
      5 C5         -4.3686    1.1933    1.2115 C.ar      1 UNL1        0.0000
      6 C6         -3.8512    0.2177    0.3593 C.ar      1 UNL1        0.0000
      7 C7          0.0063   -0.7127   -1.3694 C.cat     1 UNL1        0.0000
      8 C8          1.1022   -0.5032    0.8030 C.3       1 UNL1        0.0000
      9 C9          0.1930    1.5021   -0.3632 C.3       1 UNL1        0.0000
     10 C10        -2.4807    0.3958   -0.2462 C.3       1 UNL1        0.0000
     11 C11        -1.3567   -0.1871    0.6036 C.3       1 UNL1        0.0000
     12 N1         -0.0159    0.0248   -0.0795 N.4       1 UNL1        0.0000
     13 H1         -7.3718   -0.2378    1.9149 H         1 UNL1        0.0000
     14 H2         -6.4513   -1.9729    0.3992 H         1 UNL1        0.0000
     15 H3         -6.0383    1.7894    2.4343 H         1 UNL1        0.0000
     16 H4         -4.2055   -1.6873   -0.5955 H         1 UNL1        0.0000
     17 H5         -3.7918    2.0844    1.4447 H         1 UNL1        0.0000
     18 H6         -0.8377   -1.3556   -1.6554 H         1 UNL1        0.0000
     19 H7          0.8672   -0.6224   -2.0463 H         1 UNL1        0.0000
     20 H8          1.0524    0.0605    1.7350 H         1 UNL1        0.0000
     21 H9          0.9037   -1.5652    0.9500 H         1 UNL1        0.0000
     22 H10         2.0320   -0.3269    0.2617 H         1 UNL1        0.0000
     23 H11         0.1707    2.0081    0.6024 H         1 UNL1        0.0000
     24 H12         1.1631    1.5878   -0.8535 H         1 UNL1        0.0000
     25 H13        -0.6274    1.8109   -1.0115 H         1 UNL1        0.0000
     26 H14        -2.3052    1.4708   -0.3818 H         1 UNL1        0.0000
     27 H15        -2.4553   -0.0372   -1.2545 H         1 UNL1        0.0000
     28 H16        -1.4625   -1.2631    0.7715 H         1 UNL1        0.0000
     29 H17        -1.2944    0.3250    1.5684 H         1 UNL1        0.0000
@<TRIPOS>BOND
     1    1    2 ar
     2    1    3 ar
     3    2    4 ar
     4    3    5 ar
     5    4    6 ar
     6    5    6 ar
     7    6   10 1
     8    7   12 1
     9    8   12 1
    10    9   12 1
    11   10   11 1
    12   11   12 1
    13    1   13 1
    14    2   14 1
    15    3   15 1
    16    4   16 1
    17    5   17 1
    18    7   18 1
    19    7   19 1
    20    8   20 1
    21    8   21 1
    22    8   22 1
    23    9   23 1
    24    9   24 1
    25    9   25 1
    26   10   26 1
    27   10   27 1
    28   11   28 1
    29   11   29 1
