@<TRIPOS>MOLECULE
*****
   33    33     0     0     0
SMALL
NO_CHARGES

@<TRIPOS>ATOM
      1 C1          0.7138    1.2800   -0.1438 C.3       1 UNL1        0.0000
      2 C2         -0.2950   -0.7790   -1.2145 C.3       1 UNL1        0.0000
      3 C3          0.2747    0.7797    1.2316 C.3       1 UNL1        0.0000
      4 C4         -0.7344   -1.2786    0.1612 C.3       1 UNL1        0.0000
      5 C5          0.9467    0.1192   -1.1214 C.3       1 UNL1        0.0000
      6 C6         -0.9581   -0.1133    1.1210 C.3       1 UNL1        0.0000
      7 C7          1.3347    0.6467   -2.5016 C.3       1 UNL1        0.0000
      8 C8         -2.5185   -1.5606    2.4043 C.3       1 UNL1        0.0000
      9 C9         -1.5720    0.4837    3.4539 C.3       1 UNL1        0.0000
     10 C10        -0.1114   -1.4791    3.0168 C.3       1 UNL1        0.0000
     11 N1         -1.2824   -0.6546    2.4675 N.4       1 UNL1        0.0000
     12 H1         -0.0534    1.9558   -0.5432 H         1 UNL1        0.0000
     13 H2          1.6321    1.8698   -0.0377 H         1 UNL1        0.0000
     14 H3         -0.0857   -1.6397   -1.8609 H         1 UNL1        0.0000
     15 H4         -1.1219   -0.2265   -1.6788 H         1 UNL1        0.0000
     16 H5          1.1035    0.2280    1.6943 H         1 UNL1        0.0000
     17 H6          0.0639    1.6378    1.8810 H         1 UNL1        0.0000
     18 H7         -1.6549   -1.8658    0.0576 H         1 UNL1        0.0000
     19 H8          0.0316   -1.9573    0.5585 H         1 UNL1        0.0000
     20 H9          1.7823   -0.4859   -0.7449 H         1 UNL1        0.0000
     21 H10        -1.8294    0.4751    0.8109 H         1 UNL1        0.0000
     22 H11         0.5257    1.2530   -2.9054 H         1 UNL1        0.0000
     23 H12         1.5259   -0.1872   -3.1747 H         1 UNL1        0.0000
     24 H13         2.2333    1.2564   -2.4241 H         1 UNL1        0.0000
     25 H14        -2.7134   -1.9303    3.4127 H         1 UNL1        0.0000
     26 H15        -3.3538   -0.9610    2.0376 H         1 UNL1        0.0000
     27 H16        -2.2956   -2.3825    1.7213 H         1 UNL1        0.0000
     28 H17        -1.8031    0.0358    4.4221 H         1 UNL1        0.0000
     29 H18        -0.6793    1.1092    3.5137 H         1 UNL1        0.0000
     30 H19        -2.4229    1.0498    3.0703 H         1 UNL1        0.0000
     31 H20        -0.3985   -1.8519    4.0017 H         1 UNL1        0.0000
     32 H21         0.0720   -2.3022    2.3235 H         1 UNL1        0.0000
     33 H22         0.7575   -0.8217    3.0841 H         1 UNL1        0.0000
@<TRIPOS>BOND
     1    1    3 1
     2    1    5 1
     3    2    4 1
     4    2    5 1
     5    3    6 1
     6    4    6 1
     7    5    7 1
     8    6   11 1
     9    8   11 1
    10    9   11 1
    11   10   11 1
    12    1   12 1
    13    1   13 1
    14    2   14 1
    15    2   15 1
    16    3   16 1
    17    3   17 1
    18    4   18 1
    19    4   19 1
    20    5   20 1
    21    6   21 1
    22    7   22 1
    23    7   23 1
    24    7   24 1
    25    8   25 1
    26    8   26 1
    27    8   27 1
    28    9   28 1
    29    9   29 1
    30    9   30 1
    31   10   31 1
    32   10   32 1
    33   10   33 1
