@<TRIPOS>MOLECULE
MGLab36
214 225 7 0 0 
SMALL
NO_CHARGES


@<TRIPOS>ATOM
  1 C1      25.3430   110.1360    33.1190 C.3   1 MGO   0.0000 
  2 O1      24.9320   110.0370    34.5070 O.3   1 MGO   0.0000 
  3 C2      25.0520   108.7970    32.3850 C.3   1 MGO   0.0000 
  4 O2      23.6450   108.5630    32.3040 O.3   1 MGO   0.0000 
  5 C3      25.7400   107.6550    33.1530 C.3   1 MGO   0.0000 
  6 O3      25.4770   106.4220    32.4840 O.3   1 MGO   0.0000 
  7 C4      27.2550   107.9090    33.2500 C.3   1 MGO   0.0000 
  8 C5      27.5480   109.2800    33.8840 C.3   1 MGO   0.0000 
  9 O5      26.7800   110.3150    33.1620 O.3   1 MGO   0.0000 
 10 C6      29.0350   109.6360    33.7460 C.3   1 MGO   0.0000 
 11 O6      29.3700   109.8730    32.3880 O.3   1 MGO   0.0000 
 12 H1      24.8610   110.9650    32.6130 H     1 MGO   0.0000 
 13 H2      25.4590   108.8350    31.3740 H     1 MGO   0.0000 
 14 H2      23.2950   108.4410    33.2120 H     1 MGO   0.0000 
 15 H3      25.3300   107.6050    34.1640 H     1 MGO   0.0000 
 16 H3      24.5580   106.4770    32.1800 H     1 MGO   0.0000 
 17 H4      27.6840   107.8900    32.2460 H     1 MGO   0.0000 
 18 H5      27.2900   109.2430    34.9440 H     1 MGO   0.0000 
 19 H61     29.2320   110.5390    34.3250 H     1 MGO   0.0000 
 20 H62     29.6460   108.8240    34.1410 H     1 MGO   0.0000 
 21 H6      28.7310   110.5150    32.0520 H     1 MGO   0.0000 
 22 C1      21.7150   111.1190    36.9940 C.3   2 MGO   0.0000 
 23 O1      22.6410   110.8570    38.0760 O.3   2 MGO   0.0000 
 24 C2      21.5310   109.8260    36.1530 C.3   2 MGO   0.0000 
 25 O2      20.9500   108.7840    36.9440 O.3   2 MGO   0.0000 
 26 C3      22.9040   109.3690    35.6330 C.3   2 MGO   0.0000 
 27 O3      22.7090   108.2050    34.8340 O.3   2 MGO   0.0000 
 28 C4      23.5820   110.4860    34.8200 C.3   2 MGO   0.0000 
 29 C5      23.6990   111.7700    35.6590 C.3   2 MGO   0.0000 
 30 O5      22.3620   112.1160    36.1660 O.3   2 MGO   0.0000 
 31 C6      24.1970   112.9550    34.8210 C.3   2 MGO   0.0000 
 32 O6      23.3090   113.2250    33.7480 O.3   2 MGO   0.0000 
 33 H1      20.7550   111.4690    37.3550 H     2 MGO   0.0000 
 34 H2      20.8830   110.0270    35.2990 H     2 MGO   0.0000 
 35 H2      20.7690   109.1260    37.8420 H     2 MGO   0.0000 
 36 H3      23.5400   109.1170    36.4840 H     2 MGO   0.0000 
 37 H3      22.1120   107.6410    35.3510 H     2 MGO   0.0000 
 38 H4      22.9780   110.6850    33.9330 H     2 MGO   0.0000 
 39 H5      24.4100   111.5970    36.4680 H     2 MGO   0.0000 
 40 H61     24.2700   113.8330    35.4640 H     2 MGO   0.0000 
 41 H62     25.1910   112.7290    34.4290 H     2 MGO   0.0000 
 42 H6      22.4490   113.4310    34.1350 H     2 MGO   0.0000 
 43 C1      22.6100   110.8350    42.2690 C.3   3 MGO   0.0000 
 44 O1      23.5830   109.7710    42.0940 O.3   3 MGO   0.0000 
 45 C2      21.2720   110.4500    41.5750 C.3   3 MGO   0.0000 
 46 O2      20.6770   109.3230    42.2230 O.3   3 MGO   0.0000 
 47 C3      21.5580   110.1230    40.1000 C.3   3 MGO   0.0000 
 48 O3      20.3320   109.7810    39.4570 O.3   3 MGO   0.0000 
 49 C4      22.2270   111.3160    39.3940 C.3   3 MGO   0.0000 
 50 C5      23.4940   111.7640    40.1430 C.3   3 MGO   0.0000 
 51 O5      23.1610   111.9740    41.5640 O.3   3 MGO   0.0000 
 52 C6      24.0110   113.1000    39.5920 C.3   3 MGO   0.0000 
 53 O6      23.1190   114.1550    39.9140 O.3   3 MGO   0.0000 
 54 H1      22.4480   111.0650    43.3160 H     3 MGO   0.0000 
 55 H2      20.5780   111.2900    41.6210 H     3 MGO   0.0000 
 56 H2      21.2550   108.5450    42.0810 H     3 MGO   0.0000 
 57 H3      22.2360   109.2680    40.0490 H     3 MGO   0.0000 
 58 H3      19.8320   109.2530    40.0980 H     3 MGO   0.0000 
 59 H4      21.5240   112.1510    39.3550 H     3 MGO   0.0000 
 60 H5      24.2680   111.0060    40.0120 H     3 MGO   0.0000 
 61 H61     24.9840   113.3080    40.0390 H     3 MGO   0.0000 
 62 H62     24.1290   113.0320    38.5090 H     3 MGO   0.0000 
 63 H6      22.9540   114.1000    40.8640 H     3 MGO   0.0000 
 64 C1      25.0490   106.4540    44.2670 C.3   4 MGO   0.0000 
 65 O1      26.1430   106.4100    43.3170 O.3   4 MGO   0.0000 
 66 C2      23.7030   106.2640    43.5120 C.3   4 MGO   0.0000 
 67 O2      23.6620   104.9890    42.8630 O.3   4 MGO   0.0000 
 68 C3      23.5570   107.3770    42.4620 C.3   4 MGO   0.0000 
 69 O3      22.3140   107.1920    41.7910 O.3   4 MGO   0.0000 
 70 C4      23.6260   108.7570    43.1400 C.3   4 MGO   0.0000 
 71 C5      24.9590   108.9050    43.8920 C.3   4 MGO   0.0000 
 72 O5      25.0790   107.7870    44.8380 O.3   4 MGO   0.0000 
 73 C6      25.0080   110.2070    44.7060 C.3   4 MGO   0.0000 
 74 O6      23.9590   110.2500    45.6600 O.3   4 MGO   0.0000 
 75 H1      25.1510   105.6990    45.0370 H     4 MGO   0.0000 
 76 H2      22.8710   106.3320    44.2130 H     4 MGO   0.0000 
 77 H2      24.4550   104.4790    43.1160 H     4 MGO   0.0000 
 78 H3      24.3710   107.2960    41.7390 H     4 MGO   0.0000 
 79 H3      22.2880   106.2470    41.5700 H     4 MGO   0.0000 
 80 H4      22.8000   108.8380    43.8490 H     4 MGO   0.0000 
 81 H5      25.7750   108.9170    43.1680 H     4 MGO   0.0000 
 82 H61     25.9700   110.2630    45.2190 H     4 MGO   0.0000 
 83 H62     24.9260   111.0600    44.0300 H     4 MGO   0.0000 
 84 H6      24.0800   109.4970    46.2510 H     4 MGO   0.0000 
 85 C1      29.4710   103.8590    42.7090 C.3   5 MGO   0.0000 
 86 O1      29.2230   104.0200    41.2870 O.3   5 MGO   0.0000 
 87 C2      28.2190   103.2370    43.3840 C.3   5 MGO   0.0000 
 88 O2      27.9670   101.9490    42.8330 O.3   5 MGO   0.0000 
 89 C3      27.0040   104.1490    43.1370 C.3   5 MGO   0.0000 
 90 O3      25.8630   103.5590    43.7580 O.3   5 MGO   0.0000 
 91 C4      27.2690   105.5610    43.6910 C.3   5 MGO   0.0000 
 92 C5      28.5310   106.1440    43.0390 C.3   5 MGO   0.0000 
 93 O5      29.6450   105.1990    43.2370 O.3   5 MGO   0.0000 
 94 C6      28.9350   107.4650    43.7120 C.3   5 MGO   0.0000 
 95 O6      29.4140   107.2310    45.0260 O.3   5 MGO   0.0000 
 96 H1      30.3420   103.2450    42.9020 H     5 MGO   0.0000 
 97 H2      28.3780   103.1440    44.4590 H     5 MGO   0.0000 
 98 H2      27.7470   102.0920    41.8910 H     5 MGO   0.0000 
 99 H3      26.8250   104.2240    42.0620 H     5 MGO   0.0000 
100 H3      25.9180   102.6100    43.5680 H     5 MGO   0.0000 
101 H4      27.4190   105.5070    44.7710 H     5 MGO   0.0000 
102 H5      28.3310   106.3300    41.9830 H     5 MGO   0.0000 
103 H61     29.7280   107.9270    43.1230 H     5 MGO   0.0000 
104 H62     28.0800   108.1420    43.7420 H     5 MGO   0.0000 
105 H6      30.0680   106.5230    44.9610 H     5 MGO   0.0000 
106 C1      31.2410   103.7750    37.5810 C.3   6 MGO   0.0000 
107 H1      31.9343   103.5475    36.7712 H     6 MGO   0.0000 
108 O1      30.2110   104.6940    37.1250 O.3   6 MGO   0.0000 
109 C2      30.5980   102.4620    38.0900 C.3   6 MGO   0.0000 
110 H2      31.3582   101.8046    38.5118 H     6 MGO   0.0000 
111 O2      29.9870   101.7740    36.9960 O.3   6 MGO   0.0000 
112 H2      29.3178   102.3542    36.6256 H     6 MGO   0.0000 
113 C3      29.5800   102.7910    39.2070 C.3   6 MGO   0.0000 
114 H3      28.7960   103.4557    38.8442 H     6 MGO   0.0000 
115 C4      30.2690   103.5490    40.3690 C.3   6 MGO   0.0000 
116 C5      31.0140   104.7960    39.8330 C.3   6 MGO   0.0000 
117 H5      30.2408   105.5102    39.5499 H     6 MGO   0.0000 
118 O5      31.8770   104.4090    38.7080 O.3   6 MGO   0.0000 
119 C6      31.9470   105.4250    40.8780 C.3   6 MGO   0.0000 
120 H61     31.3532   105.7647    41.7266 H     6 MGO   0.0000 
121 H62     32.4606   106.2757    40.4302 H     6 MGO   0.0000 
122 O6      32.9120   104.4880    41.3330 O.3   6 MGO   0.0000 
123 H6      32.4383   103.7494    41.7225 H     6 MGO   0.0000 
124 NQ      28.9536   101.5540    39.6580 N.am  6 MGO   0.0000 
125 HQ2     29.5489   100.8553    40.0933 H     6 MGO   0.0000 
126 C7      28.2697    97.7945    30.7448 C.3   6 MGO   0.0000 
127 H71     29.3588    97.6883    30.8405 H     6 MGO   0.0000 
128 H72     28.0303    98.7920    31.1305 H     6 MGO   0.0000 
129 C8      27.9135    97.7697    29.2548 C.3   6 MGO   0.0000 
130 H81     26.9783    98.3214    29.0939 H     6 MGO   0.0000 
131 H82     28.6752    98.3321    28.7002 H     6 MGO   0.0000 
132 C9      27.7462    96.3619    28.6851 C.3   6 MGO   0.0000 
133 H9      26.6824    96.1144    28.6089 H     6 MGO   0.0000 
134 O7      28.2585    96.3209    27.3554 O.3   6 MGO   0.0000 
135 H7      29.2140    96.4977    27.3974 H     6 MGO   0.0000 
136 C10     28.4463    95.3160    29.5378 C.3   6 MGO   0.0000 
137 H101    28.3299    94.3259    29.0776 H     6 MGO   0.0000 
138 H102    29.5280    95.5096    29.5158 H     6 MGO   0.0000 
139 C11     27.9341    95.2741    30.9946 C.3   6 MGO   0.0000 
140 H11     27.0212    94.6614    30.9983 H     6 MGO   0.0000 
141 C12     28.9708    94.5225    31.8317 C.3   6 MGO   0.0000 
142 H121    29.1870    93.5440    31.3819 H     6 MGO   0.0000 
143 H122    29.9286    95.0608    31.8042 H     6 MGO   0.0000 
144 C13     28.5377    94.3032    33.2792 C.3   6 MGO   0.0000 
145 H13     27.8851    93.4232    33.3287 H     6 MGO   0.0000 
146 O8      29.7133    93.9644    34.0148 O.3   6 MGO   0.0000 
147 H8      30.3192    94.7240    33.9774 H     6 MGO   0.0000 
148 C14     27.7693    95.5010    33.8956 C.3   6 MGO   0.0000 
149 H14     26.7052    95.2711    33.7696 H     6 MGO   0.0000 
150 C15     28.0466    95.6875    35.3975 C.3   6 MGO   0.0000 
151 H15     29.1285    95.8582    35.5013 H     6 MGO   0.0000 
152 C16     27.7172    94.5225    36.3269 C.3   6 MGO   0.0000 
153 H161    26.7362    94.0928    36.0946 H     6 MGO   0.0000 
154 H162    28.4507    93.7131    36.2669 H     6 MGO   0.0000 
155 C17     27.7092    95.1511    37.7285 C.3   6 MGO   0.0000 
156 H171    26.8192    94.8181    38.2663 H     6 MGO   0.0000 
157 H172    28.5765    94.8134    38.3080 H     6 MGO   0.0000 
158 C18     27.7804    96.6903    37.5255 C.3   6 MGO   0.0000 
159 H18     28.8573    96.9241    37.5430 H     6 MGO   0.0000 
160 C19     27.1940    97.5076    38.7154 C.3   6 MGO   0.0000 
161 H19     27.7773    97.1922    39.5932 H     6 MGO   0.0000 
162 C20     27.4438    99.0167    38.5310 C.3   6 MGO   0.0000 
163 H201    28.4673    99.1713    38.1680 H     6 MGO   0.0000 
164 H202    26.7737    99.4108    37.7588 H     6 MGO   0.0000 
165 C21     27.2480    99.8500    39.8002 C.3   6 MGO   0.0000 
166 H211    26.2089    99.8257    40.1439 H     6 MGO   0.0000 
167 H212    27.8761    99.4743    40.6154 H     6 MGO   0.0000 
168 C22     27.6036   101.2886    39.4893 C.2   6 MGO   0.0000 
169 C23     25.7277    97.2426    39.0750 C.3   6 MGO   0.0000 
170 H231    25.5134    97.6121    40.0841 H     6 MGO   0.0000 
171 H232    25.4778    96.1801    39.0810 H     6 MGO   0.0000 
172 H233    25.0375    97.7549    38.4008 H     6 MGO   0.0000 
173 C24     27.3110    96.8926    36.0467 C.3   6 MGO   0.0000 
174 C25     25.7724    96.7913    35.9197 C.3   6 MGO   0.0000 
175 H251    25.2976    97.7216    36.2465 H     6 MGO   0.0000 
176 H252    25.3532    95.9750    36.5153 H     6 MGO   0.0000 
177 H253    25.4411    96.6264    34.8913 H     6 MGO   0.0000 
178 C26     27.7956    98.1703    35.3230 C.3   6 MGO   0.0000 
179 H26     27.2564    99.0432    35.7015 H     6 MGO   0.0000 
180 O9      29.1762    98.4380    35.5597 O.3   6 MGO   0.0000 
181 H9      29.7114    97.8142    35.0436 H     6 MGO   0.0000 
182 C27     27.5388    98.0960    33.8068 C.3   6 MGO   0.0000 
183 H271    26.4620    98.2020    33.6522 H     6 MGO   0.0000 
184 H272    28.0091    98.9689    33.3387 H     6 MGO   0.0000 
185 C28     28.0639    96.8116    33.1017 C.3   6 MGO   0.0000 
186 H28     29.1589    96.9188    33.0831 H     6 MGO   0.0000 
187 C29     27.5826    96.6877    31.5904 C.3   6 MGO   0.0000 
188 C30     26.0434    96.8809    31.4887 C.3   6 MGO   0.0000 
189 H301    25.7537    97.9250    31.6470 H     6 MGO   0.0000 
190 H302    25.5088    96.2671    32.2197 H     6 MGO   0.0000 
191 H303    25.6535    96.5999    30.5062 H     6 MGO   0.0000 
192 O10     26.7627   102.0822    39.0726 O.2   6 MGO   0.0000 
193 H4      30.9810   102.8730    40.8440 H     6 MGO   0.0000 
194 C1      28.3470   105.7220    33.4550 C.3   7 MGO   0.0000 
195 O1      27.8120   106.8860    34.1260 O.3   7 MGO   0.0000 
196 C2      27.8410   104.4350    34.1640 C.3   7 MGO   0.0000 
197 O2      26.4120   104.3550    34.1040 O.3   7 MGO   0.0000 
198 C3      28.3010   104.4480    35.6320 C.3   7 MGO   0.0000 
199 O3      27.8540   103.2360    36.2360 O.3   7 MGO   0.0000 
200 C4      29.8340   104.5830    35.7130 C.3   7 MGO   0.0000 
201 C5      30.2870   105.8630    34.9920 C.3   7 MGO   0.0000 
202 O5      29.7830   105.8100    33.6110 O.3   7 MGO   0.0000 
203 C6      31.8170   105.9630    34.9170 C.3   7 MGO   0.0000 
204 O6      32.3580   104.8790    34.1790 O.3   7 MGO   0.0000 
205 H1      28.0690   105.6970    32.4080 H     7 MGO   0.0000 
206 H2      28.2640   103.5550    33.6770 H     7 MGO   0.0000 
207 H2      26.0720   105.1100    33.5850 H     7 MGO   0.0000 
208 H3      27.8440   105.2970    36.1440 H     7 MGO   0.0000 
209 H3      26.9040   103.1920    36.0470 H     7 MGO   0.0000 
210 H4      30.2840   103.7210    35.2180 H     7 MGO   0.0000 
211 H5      29.9080   106.7300    35.5360 H     7 MGO   0.0000 
212 H61     32.0830   106.9030    34.4280 H     7 MGO   0.0000 
213 H62     32.2330   105.9690    35.9260 H     7 MGO   0.0000 
214 H6      31.9810   104.9250    33.2920 H     7 MGO   0.0000 
@<TRIPOS>BOND
  1   1   2  1   
  2   1   3  1   
  3   1   9  1   
  4   1  12  1   
  5   2  28  1   INTERRES
  6   3   4  1   
  7   3   5  1   
  8   3  13  1   
  9   4  14  1   
 10   5   6  1   
 11   5   7  1   
 12   5  15  1   
 13   6  16  1   
 14   7   8  1   
 15   7  17  1   
 16   7 195  1   INTERRES
 17   8   9  1   
 18   8  10  1   
 19   8  18  1   
 20  10  11  1   
 21  10  19  1   
 22  10  20  1   
 23  11  21  1   
 24  22  23  1   
 25  22  24  1   
 26  22  30  1   
 27  22  33  1   
 28  23  49  1   INTERRES
 29  24  25  1   
 30  24  26  1   
 31  24  34  1   
 32  25  35  1   
 33  26  27  1   
 34  26  28  1   
 35  26  36  1   
 36  27  37  1   
 37  28  29  1   
 38  28  38  1   
 39  29  30  1   
 40  29  31  1   
 41  29  39  1   
 42  31  32  1   
 43  31  40  1   
 44  31  41  1   
 45  32  42  1   
 46  43  44  1   
 47  43  45  1   
 48  43  51  1   
 49  43  54  1   
 50  44  70  1   INTERRES
 51  45  46  1   
 52  45  47  1   
 53  45  55  1   
 54  46  56  1   
 55  47  48  1   
 56  47  49  1   
 57  47  57  1   
 58  48  58  1   
 59  49  50  1   
 60  49  59  1   
 61  50  51  1   
 62  50  52  1   
 63  50  60  1   
 64  52  53  1   
 65  52  61  1   
 66  52  62  1   
 67  53  63  1   
 68  64  65  1   
 69  64  66  1   
 70  64  72  1   
 71  64  75  1   
 72  65  91  1   INTERRES
 73  66  67  1   
 74  66  68  1   
 75  66  76  1   
 76  67  77  1   
 77  68  69  1   
 78  68  70  1   
 79  68  78  1   
 80  69  79  1   
 81  70  71  1   
 82  70  80  1   
 83  71  72  1   
 84  71  73  1   
 85  71  81  1   
 86  73  74  1   
 87  73  82  1   
 88  73  83  1   
 89  74  84  1   
 90  85  86  1   
 91  85  87  1   
 92  85  93  1   
 93  85  96  1   
 94  86 115  1   INTERRES
 95  87  88  1   
 96  87  89  1   
 97  87  97  1   
 98  88  98  1   
 99  89  90  1   
100  89  91  1   
101  89  99  1   
102  90 100  1   
103  91  92  1   
104  91 101  1   
105  92  93  1   
106  92  94  1   
107  92 102  1   
108  94  95  1   
109  94 103  1   
110  94 104  1   
111  95 105  1   
112 106 107  1   
113 106 108  1   
114 106 109  1   
115 106 118  1   
116 108 200  1   INTERRES
117 109 110  1   
118 109 111  1   
119 109 113  1   
120 111 112  1   
121 113 114  1   
122 113 115  1   
123 113 124  1   
124 115 116  1   
125 115 193  1   
126 116 117  1   
127 116 118  1   
128 116 119  1   
129 119 120  1   
130 119 121  1   
131 119 122  1   
132 122 123  1   
133 124 125  1   
134 124 168  am  
135 126 127  1   
136 126 128  1   
137 126 129  1   
138 126 187  1   
139 129 130  1   
140 129 131  1   
141 129 132  1   
142 132 133  1   
143 132 134  1   
144 132 136  1   
145 134 135  1   
146 136 137  1   
147 136 138  1   
148 136 139  1   
149 139 140  1   
150 139 141  1   
151 139 187  1   
152 141 142  1   
153 141 143  1   
154 141 144  1   
155 144 145  1   
156 144 146  1   
157 144 148  1   
158 146 147  1   
159 148 149  1   
160 148 150  1   
161 148 185  1   
162 150 151  1   
163 150 152  1   
164 150 173  1   
165 152 153  1   
166 152 154  1   
167 152 155  1   
168 155 156  1   
169 155 157  1   
170 155 158  1   
171 158 159  1   
172 158 160  1   
173 158 173  1   
174 160 161  1   
175 160 162  1   
176 160 169  1   
177 162 163  1   
178 162 164  1   
179 162 165  1   
180 165 166  1   
181 165 167  1   
182 165 168  1   
183 168 192  2   
184 169 170  1   
185 169 171  1   
186 169 172  1   
187 173 174  1   
188 173 178  1   
189 174 175  1   
190 174 176  1   
191 174 177  1   
192 178 179  1   
193 178 180  1   
194 178 182  1   
195 180 181  1   
196 182 183  1   
197 182 184  1   
198 182 185  1   
199 185 186  1   
200 185 187  1   
201 187 188  1   
202 188 189  1   
203 188 190  1   
204 188 191  1   
205 194 195  1   
206 194 196  1   
207 194 202  1   
208 194 205  1   
209 196 197  1   
210 196 198  1   
211 196 206  1   
212 197 207  1   
213 198 199  1   
214 198 200  1   
215 198 208  1   
216 199 209  1   
217 200 201  1   
218 200 210  1   
219 201 202  1   
220 201 203  1   
221 201 211  1   
222 203 204  1   
223 203 212  1   
224 203 213  1   
225 204 214  1   
@<TRIPOS>SUBSTRUCTURE
  1 MGO   7 GROUP 4 **** **** 2
  2 MGO  28 GROUP 4 **** **** 2
  3 MGO  49 GROUP 4 **** **** 2
  4 MGO  70 GROUP 4 **** **** 2
  5 MGO  91 GROUP 4 **** **** 2
  6 MGO 180 GROUP 4 **** **** 2
  7 MGO 200 GROUP 4 **** **** 2

# MOE 2019.01 (io_trps.svl 2018.10)
