@<TRIPOS>MOLECULE
MGLab8
158 165 7 0 0 
SMALL
USER_CHARGES


@<TRIPOS>ATOM
  1 C1      25.1890   110.7610    34.0070 C.3   1 MGO   0.0000 
  2 O1      24.4510   110.7620    35.2640 O.3   1 MGO   0.0000 
  3 C2      25.4240   109.3060    33.5450 C.3   1 MGO   0.0000 
  4 O2      24.1580   108.6960    33.3910 O.3   1 MGO   0.0000 
  5 C3      26.2810   108.5560    34.5790 C.3   1 MGO   0.0000 
  6 O3      26.5430   107.2470    34.1120 O.3   1 MGO   0.0000 
  7 C4      27.6150   109.2890    34.7930 C.3   1 MGO   0.0000 
  8 C5      27.3470   110.7390    35.2460 C.3   1 MGO   0.0000 
  9 O5      26.4840   111.3740    34.2530 O.3   1 MGO   0.0000 
 10 C6      28.6020   111.6160    35.3650 C.3   1 MGO   0.0000 
 11 O6      29.3320   111.6580    34.1560 O.3   1 MGO   0.0000 
 12 H1      24.6500   111.3030    33.2410 H     1 MGO   0.0000 
 13 H2      25.9400   109.2890    32.5830 H     1 MGO   0.0000 
 14 H2      23.6900   108.7520    34.2280 H     1 MGO   0.0000 
 15 H3      25.7440   108.4940    35.5260 H     1 MGO   0.0000 
 16 H3      27.0180   107.3090    33.2810 H     1 MGO   0.0000 
 17 H4      28.1770   109.2850    33.8580 H     1 MGO   0.0000 
 18 H5      26.8640   110.7110    36.2240 H     1 MGO   0.0000 
 19 H6      29.6460   110.7730    33.9580 H     1 MGO   0.0000 
 20 H61     29.2430   111.2360    36.1580 H     1 MGO   0.0000 
 21 H62     28.3010   112.6300    35.6290 H     1 MGO   0.0000 
 22 C1      21.4000   112.9670    37.1830 C.3   2 MGO   0.0000 
 23 O1      21.4750   112.0480    38.3140 O.3   2 MGO   0.0000 
 24 C2      21.0140   112.1850    35.9080 C.3   2 MGO   0.0000 
 25 O2      19.7620   111.5740    36.1440 O.3   2 MGO   0.0000 
 26 C3      22.0930   111.1360    35.5810 C.3   2 MGO   0.0000 
 27 O3      21.7630   110.4950    34.3650 O.3   2 MGO   0.0000 
 28 C4      23.4660   111.8140    35.4350 C.3   2 MGO   0.0000 
 29 C5      23.8110   112.5950    36.7180 C.3   2 MGO   0.0000 
 30 O5      22.7240   113.5310    36.9790 O.3   2 MGO   0.0000 
 31 C6      25.1010   113.4220    36.6200 C.3   2 MGO   0.0000 
 32 O6      25.0740   114.3210    35.5300 O.3   2 MGO   0.0000 
 33 H1      20.6760   113.7500    37.3650 H     2 MGO   0.0000 
 34 H2      20.9180   112.8640    35.0600 H     2 MGO   0.0000 
 35 H2      19.8390   111.0110    36.9190 H     2 MGO   0.0000 
 36 H3      22.1380   110.3920    36.3770 H     2 MGO   0.0000 
 37 H3      21.7280   111.1570    33.6710 H     2 MGO   0.0000 
 38 H4      23.4330   112.5030    34.5890 H     2 MGO   0.0000 
 39 H5      23.9270   111.8870    37.5400 H     2 MGO   0.0000 
 40 H6      25.0230   113.8130    34.7170 H     2 MGO   0.0000 
 41 H61     25.9530   112.7560    36.5110 H     2 MGO   0.0000 
 42 H62     25.2280   113.9900    37.5420 H     2 MGO   0.0000 
 43 C1      20.5820   112.0180    42.4510 C.3   3 MGO   0.0000 
 44 O1      21.3500   110.7880    42.5940 O.3   3 MGO   0.0000 
 45 C2      19.4120   111.7850    41.4680 C.3   3 MGO   0.0000 
 46 O2      18.6110   110.7480    41.9980 O.3   3 MGO   0.0000 
 47 C3      19.9570   111.4170    40.0750 C.3   3 MGO   0.0000 
 48 O3      18.8770   111.2950    39.1710 O.3   3 MGO   0.0000 
 49 C4      20.9130   112.5120    39.5710 C.3   3 MGO   0.0000 
 50 C5      22.0610   112.7080    40.5820 C.3   3 MGO   0.0000 
 51 O5      21.4610   113.0200    41.8720 O.3   3 MGO   0.0000 
 52 C6      23.0220   113.8580    40.2510 C.3   3 MGO   0.0000 
 53 O6      22.3400   115.0790    40.0480 O.3   3 MGO   0.0000 
 54 H1      20.2010   112.3550    43.4070 H     3 MGO   0.0000 
 55 H2      18.8040   112.6860    41.3790 H     3 MGO   0.0000 
 56 H2      19.1600   109.9690    42.1170 H     3 MGO   0.0000 
 57 H3      20.4890   110.4660    40.1270 H     3 MGO   0.0000 
 58 H3      18.4170   112.1360    39.1300 H     3 MGO   0.0000 
 59 H4      20.3560   113.4440    39.4640 H     3 MGO   0.0000 
 60 H5      22.6460   111.7890    40.6320 H     3 MGO   0.0000 
 61 H6      21.7680   114.9850    39.2830 H     3 MGO   0.0000 
 62 H61     23.5900   113.6110    39.3570 H     3 MGO   0.0000 
 63 H62     23.7240   113.9790    41.0750 H     3 MGO   0.0000 
 64 C1      23.1670   108.5890    45.7260 C.3   4 MGO   0.0000 
 65 O1      24.1960   108.1170    44.8130 O.3   4 MGO   0.0000 
 66 C2      21.7800   108.1250    45.2290 C.3   4 MGO   0.0000 
 67 O2      21.8050   106.7130    45.1520 O.3   4 MGO   0.0000 
 68 C3      21.4690   108.7500    43.8580 C.3   4 MGO   0.0000 
 69 O3      20.1660   108.3750    43.4570 O.3   4 MGO   0.0000 
 70 C4      21.5470   110.2830    43.9420 C.3   4 MGO   0.0000 
 71 C5      22.9490   110.7010    44.4290 C.3   4 MGO   0.0000 
 72 O5      23.1970   110.0420    45.7080 O.3   4 MGO   0.0000 
 73 C6      23.1340   112.2060    44.6700 C.3   4 MGO   0.0000 
 74 O6      22.1550   112.7260    45.5460 O.3   4 MGO   0.0000 
 75 H1      23.3390   108.2160    46.7270 H     4 MGO   0.0000 
 76 H2      21.0030   108.4230    45.9340 H     4 MGO   0.0000 
 77 H2      22.5240   106.4520    44.5710 H     4 MGO   0.0000 
 78 H3      22.1860   108.3900    43.1180 H     4 MGO   0.0000 
 79 H3      19.5420   108.6940    44.1120 H     4 MGO   0.0000 
 80 H4      20.7860   110.6390    44.6380 H     4 MGO   0.0000 
 81 H5      23.6770   110.3910    43.6790 H     4 MGO   0.0000 
 82 H6      21.2940   112.6290    45.1320 H     4 MGO   0.0000 
 83 H61     23.0890   112.7380    43.7220 H     4 MGO   0.0000 
 84 H62     24.1200   112.3750    45.1040 H     4 MGO   0.0000 
 85 C1      28.0800   106.4940    44.8870 C.3   5 MGO   0.0000 
 86 O1      27.9110   106.1820    43.4710 O.3   5 MGO   0.0000 
 87 C2      27.0040   105.7580    45.7120 C.3   5 MGO   0.0000 
 88 O2      27.1910   104.3720    45.5100 O.3   5 MGO   0.0000 
 89 C3      25.6020   106.2210    45.2710 C.3   5 MGO   0.0000 
 90 O3      24.6270   105.5870    46.0740 O.3   5 MGO   0.0000 
 91 C4      25.4670   107.7470    45.4070 C.3   5 MGO   0.0000 
 92 C5      26.5810   108.4550    44.6110 C.3   5 MGO   0.0000 
 93 O5      27.8620   107.9220    45.0540 O.3   5 MGO   0.0000 
 94 C6      26.6270   109.9740    44.8300 C.3   5 MGO   0.0000 
 95 O6      26.7710   110.3110    46.1950 O.3   5 MGO   0.0000 
 96 H1      29.0670   106.2150    45.2330 H     5 MGO   0.0000 
 97 H2      27.1250   105.9740    46.7740 H     5 MGO   0.0000 
 98 H2      27.1320   104.1900    44.5690 H     5 MGO   0.0000 
 99 H3      25.4350   105.9550    44.2290 H     5 MGO   0.0000 
100 H3      24.7770   105.8350    46.9890 H     5 MGO   0.0000 
101 H4      25.5380   108.0210    46.4600 H     5 MGO   0.0000 
102 H5      26.4260   108.2720    43.5470 H     5 MGO   0.0000 
103 H6      25.9980   109.9980    46.6690 H     5 MGO   0.0000 
104 H61     25.7150   110.4250    44.4480 H     5 MGO   0.0000 
105 H62     27.4700   110.3860    44.2750 H     5 MGO   0.0000 
106 C1      30.4560   105.4520    40.1660 C.3   6 MGO   0.0000 
107 O1      29.6080   106.3150    39.3590 O.3   6 MGO   0.0000 
108 C2      29.6230   104.2740    40.7060 C.3   6 MGO   0.0000 
109 O2      29.1400   103.5490    39.5920 O.3   6 MGO   0.0000 
110 C3      28.4800   104.8180    41.5810 C.3   6 MGO   0.0000 
111 C4      29.0530   105.6250    42.7610 C.3   6 MGO   0.0000 
112 C5      29.9120   106.7830    42.2030 C.3   6 MGO   0.0000 
113 O5      30.9210   106.2250    41.3030 O.3   6 MGO   0.0000 
114 C6      30.6910   107.6000    43.2450 C.3   6 MGO   0.0000 
115 O6      31.5000   106.7770    44.0600 O.3   6 MGO   0.0000 
116 NQ      27.7460   103.6660    42.1150 N.am  6 MGO   0.0000 
117 C9      26.3440   103.7270    41.5540 C.2   6 MGO   0.0000 
118 C1      25.1980   103.6050    42.5340 C.3   6 MGO   0.0000 
119 C12     24.8700   102.1020    42.6300 C.3   6 MGO   0.0000 
120 C123    23.8890   101.8870    43.7920 C.2   6 MGO   0.0000 
121 O123    23.8470   100.6160    44.4420 O.co2 6 MGO  -0.5000 
122 O       26.1650   103.7490    40.3670 O.2   6 MGO   0.0000 BACKBONE
123 O       23.1370   102.7850    44.1770 O.co2 6 MGO  -0.5000 BACKBONE
124 HQ1     27.6960   103.7430    43.1780 H     6 MGO   0.0000 
125 H11     25.5320   103.9430    43.5010 H     6 MGO   0.0000 
126 H121    25.7860   101.5400    42.8260 H     6 MGO   0.0000 
127 H122    24.4260   101.7470    41.7000 H     6 MGO   0.0000 
128 H13     24.3370   104.1410    42.1570 H     6 MGO   0.0000 
129 H1      31.2910   105.0780    39.5890 H     6 MGO   0.0000 
130 H2      30.2440   103.6100    41.3080 H     6 MGO   0.0000 
131 H2      28.6230   104.1430    39.0420 H     6 MGO   0.0000 
132 H3      27.8450   105.4700    40.9810 H     6 MGO   0.0000 
133 H4      29.6580   104.9690    43.3890 H     6 MGO   0.0000 
134 H5      29.2490   107.4660    41.6720 H     6 MGO   0.0000 
135 H6      30.9290   106.1890    44.5600 H     6 MGO   0.0000 
136 H61     30.0040   108.1630    43.8700 H     6 MGO   0.0000 
137 H62     31.3300   108.3140    42.7250 H     6 MGO   0.0000 
138 C1      29.7540   108.5030    35.7730 C.3   7 MGO   0.0000 
139 O1      28.3030   108.5910    35.8600 O.3   7 MGO   0.0000 
140 C2      30.1740   107.0190    35.6950 C.3   7 MGO   0.0000 
141 O2      29.6020   106.4760    34.5220 O.3   7 MGO   0.0000 
142 C3      29.6910   106.2740    36.9530 C.3   7 MGO   0.0000 
143 O3      30.1520   104.9380    36.9060 O.3   7 MGO   0.0000 
144 C4      30.2390   106.9540    38.2200 C.3   7 MGO   0.0000 
145 C5      29.8600   108.4480    38.2510 C.3   7 MGO   0.0000 
146 O5      30.2980   109.0550    37.0010 O.3   7 MGO   0.0000 
147 C6      30.5310   109.2320    39.3890 C.3   7 MGO   0.0000 
148 O6      31.9400   109.1360    39.3430 O.3   7 MGO   0.0000 
149 H1      30.1300   109.0440    34.9140 H     7 MGO   0.0000 
150 H2      31.2590   106.9320    35.6290 H     7 MGO   0.0000 
151 H2      28.6510   106.5960    34.5630 H     7 MGO   0.0000 
152 H3      28.6000   106.2730    36.9840 H     7 MGO   0.0000 
153 H3      31.1120   104.9480    36.8800 H     7 MGO   0.0000 
154 H4      31.3260   106.8570    38.2340 H     7 MGO   0.0000 
155 H5      28.7790   108.5350    38.3720 H     7 MGO   0.0000 
156 H6      32.1870   108.2180    39.4730 H     7 MGO   0.0000 
157 H61     30.1810   108.8570    40.3470 H     7 MGO   0.0000 
158 H62     30.2470   110.2820    39.3090 H     7 MGO   0.0000 
@<TRIPOS>BOND
  1   1   2  1   
  2   1   3  1   
  3   1   9  1   
  4   1  12  1   
  5   2  28  1   INTERRES
  6   3   4  1   
  7   3   5  1   
  8   3  13  1   
  9   4  14  1   
 10   5   6  1   
 11   5   7  1   
 12   5  15  1   
 13   6  16  1   
 14   7   8  1   
 15   7  17  1   
 16   7 139  1   INTERRES
 17   8   9  1   
 18   8  10  1   
 19   8  18  1   
 20  10  11  1   
 21  10  20  1   
 22  10  21  1   
 23  11  19  1   
 24  22  23  1   
 25  22  24  1   
 26  22  30  1   
 27  22  33  1   
 28  23  49  1   INTERRES
 29  24  25  1   
 30  24  26  1   
 31  24  34  1   
 32  25  35  1   
 33  26  27  1   
 34  26  28  1   
 35  26  36  1   
 36  27  37  1   
 37  28  29  1   
 38  28  38  1   
 39  29  30  1   
 40  29  31  1   
 41  29  39  1   
 42  31  32  1   
 43  31  41  1   
 44  31  42  1   
 45  32  40  1   
 46  43  44  1   
 47  43  45  1   
 48  43  51  1   
 49  43  54  1   
 50  44  70  1   INTERRES
 51  45  46  1   
 52  45  47  1   
 53  45  55  1   
 54  46  56  1   
 55  47  48  1   
 56  47  49  1   
 57  47  57  1   
 58  48  58  1   
 59  49  50  1   
 60  49  59  1   
 61  50  51  1   
 62  50  52  1   
 63  50  60  1   
 64  52  53  1   
 65  52  62  1   
 66  52  63  1   
 67  53  61  1   
 68  64  65  1   
 69  64  66  1   
 70  64  72  1   
 71  64  75  1   
 72  65  91  1   INTERRES
 73  66  67  1   
 74  66  68  1   
 75  66  76  1   
 76  67  77  1   
 77  68  69  1   
 78  68  70  1   
 79  68  78  1   
 80  69  79  1   
 81  70  71  1   
 82  70  80  1   
 83  71  72  1   
 84  71  73  1   
 85  71  81  1   
 86  73  74  1   
 87  73  83  1   
 88  73  84  1   
 89  74  82  1   
 90  85  86  1   
 91  85  87  1   
 92  85  93  1   
 93  85  96  1   
 94  86 111  1   INTERRES
 95  87  88  1   
 96  87  89  1   
 97  87  97  1   
 98  88  98  1   
 99  89  90  1   
100  89  91  1   
101  89  99  1   
102  90 100  1   
103  91  92  1   
104  91 101  1   
105  92  93  1   
106  92  94  1   
107  92 102  1   
108  94  95  1   
109  94 104  1   
110  94 105  1   
111  95 103  1   
112 106 107  1   
113 106 108  1   
114 106 113  1   
115 106 129  1   
116 107 144  1   INTERRES
117 108 109  1   
118 108 110  1   
119 108 130  1   
120 109 131  1   
121 110 111  1   
122 110 116  1   
123 110 132  1   
124 111 112  1   
125 111 133  1   
126 112 113  1   
127 112 114  1   
128 112 134  1   
129 114 115  1   
130 114 136  1   
131 114 137  1   
132 115 135  1   
133 116 117  am  
134 116 124  1   
135 117 118  1   
136 117 122  2   
137 118 119  1   
138 118 125  1   
139 118 128  1   
140 119 120  1   
141 119 126  1   
142 119 127  1   
143 120 121  ar  
144 120 123  ar  
145 138 139  1   
146 138 140  1   
147 138 146  1   
148 138 149  1   
149 140 141  1   
150 140 142  1   
151 140 150  1   
152 141 151  1   
153 142 143  1   
154 142 144  1   
155 142 152  1   
156 143 153  1   
157 144 145  1   
158 144 154  1   
159 145 146  1   
160 145 147  1   
161 145 155  1   
162 147 148  1   
163 147 157  1   
164 147 158  1   
165 148 156  1   
@<TRIPOS>SUBSTRUCTURE
  1 MGO   7 GROUP 4 **** **** 2
  2 MGO  28 GROUP 4 **** **** 2
  3 MGO  49 GROUP 4 **** **** 2
  4 MGO  70 GROUP 4 **** **** 2
  5 MGO  91 GROUP 4 **** **** 2
  6 MGO 116 GROUP 4 **** **** 2
  7 MGO 144 GROUP 4 **** **** 2

# MOE 2018.01 (io_trps.svl 2018.01)
