@<TRIPOS>MOLECULE
MGLab36
214 225 1 0 0 
SMALL
USER_CHARGES


@<TRIPOS>ATOM
  1 C1      25.3427   110.1364    33.1193 C.3   1 <1>   0.4800 
  2 O1      24.9323   110.0372    34.5069 O.3   1 <1>  -0.5600 
  3 C2      25.0520   108.7967    32.3852 C.3   1 <1>   0.2000 
  4 O2      23.6447   108.5632    32.3044 O.3   1 <1>  -0.6800 
  5 C3      25.7397   107.6546    33.1531 C.3   1 <1>   0.2000 
  6 O3      25.4771   106.4222    32.4843 O.3   1 <1>  -0.6800 
  7 C4      27.2546   107.9095    33.2502 C.3   1 <1>   0.2000 
  8 C5      27.5476   109.2803    33.8843 C.3   1 <1>   0.2000 
  9 O5      26.7801   110.3146    33.1621 O.3   1 <1>  -0.5600 
 10 C6      29.0349   109.6361    33.7456 C.3   1 <1>   0.1200 
 11 O6      29.3696   109.8733    32.3879 O.3   1 <1>  -0.6800 
 12 C1      21.7154   111.1191    36.9943 C.3   1 <1>   0.4800 
 13 O1      22.6409   110.8571    38.0761 O.3   1 <1>  -0.5600 
 14 C2      21.5309   109.8260    36.1529 C.3   1 <1>   0.2000 
 15 O2      20.9505   108.7841    36.9443 O.3   1 <1>  -0.6800 
 16 C3      22.9039   109.3690    35.6331 C.3   1 <1>   0.2000 
 17 O3      22.7085   108.2053    34.8344 O.3   1 <1>  -0.6800 
 18 C4      23.5820   110.4857    34.8198 C.3   1 <1>   0.2000 
 19 C5      23.6986   111.7698    35.6593 C.3   1 <1>   0.2000 
 20 O5      22.3622   112.1158    36.1662 O.3   1 <1>  -0.5600 
 21 C6      24.1974   112.9546    34.8208 C.3   1 <1>   0.1200 
 22 O6      23.3094   113.2252    33.7483 O.3   1 <1>  -0.6800 
 23 C1      22.6101   110.8349    42.2693 C.3   1 <1>   0.4800 
 24 O1      23.5828   109.7708    42.0937 O.3   1 <1>  -0.5600 
 25 C2      21.2723   110.4500    41.5755 C.3   1 <1>   0.2000 
 26 O2      20.6769   109.3235    42.2231 O.3   1 <1>  -0.6800 
 27 C3      21.5581   110.1228    40.0998 C.3   1 <1>   0.2000 
 28 O3      20.3322   109.7813    39.4566 O.3   1 <1>  -0.6800 
 29 C4      22.2265   111.3160    39.3937 C.3   1 <1>   0.2000 
 30 C5      23.4935   111.7639    40.1428 C.3   1 <1>   0.2000 
 31 O5      23.1613   111.9738    41.5642 O.3   1 <1>  -0.5600 
 32 C6      24.0109   113.1004    39.5919 C.3   1 <1>   0.1200 
 33 O6      23.1191   114.1550    39.9138 O.3   1 <1>  -0.6800 
 34 C1      25.0491   106.4544    44.2669 C.3   1 <1>   0.4800 
 35 O1      26.1428   106.4105    43.3175 O.3   1 <1>  -0.5600 
 36 C2      23.7035   106.2637    43.5121 C.3   1 <1>   0.2000 
 37 O2      23.6623   104.9894    42.8627 O.3   1 <1>  -0.6800 
 38 C3      23.5570   107.3771    42.4622 C.3   1 <1>   0.2000 
 39 O3      22.3138   107.1917    41.7909 O.3   1 <1>  -0.6800 
 40 C4      23.6257   108.7568    43.1397 C.3   1 <1>   0.2000 
 41 C5      24.9588   108.9053    43.8923 C.3   1 <1>   0.2000 
 42 O5      25.0788   107.7867    44.8379 O.3   1 <1>  -0.5600 
 43 C6      25.0085   110.2066    44.7056 C.3   1 <1>   0.1200 
 44 O6      23.9595   110.2498    45.6599 O.3   1 <1>  -0.6800 
 45 C1      29.4707   103.8595    42.7091 C.3   1 <1>   0.4800 
 46 O1      29.2227   104.0200    41.2875 O.3   1 <1>  -0.5600 
 47 C2      28.2186   103.2372    43.3844 C.3   1 <1>   0.2000 
 48 O2      27.9665   101.9486    42.8326 O.3   1 <1>  -0.6800 
 49 C3      27.0036   104.1486    43.1373 C.3   1 <1>   0.2000 
 50 O3      25.8627   103.5591    43.7580 O.3   1 <1>  -0.6800 
 51 C4      27.2686   105.5607    43.6909 C.3   1 <1>   0.2000 
 52 C5      28.5314   106.1443    43.0393 C.3   1 <1>   0.2000 
 53 O5      29.6447   105.1986    43.2374 O.3   1 <1>  -0.5600 
 54 C6      28.9354   107.4647    43.7115 C.3   1 <1>   0.1200 
 55 O6      29.4136   107.2311    45.0255 O.3   1 <1>  -0.6800 
 56 C1      31.2410   103.7754    37.5811 C.3   1 <1>   0.4800 
 57 O1      30.2105   104.6942    37.1249 O.3   1 <1>  -0.5600 
 58 C2      30.5980   102.4617    38.0901 C.3   1 <1>   0.2000 
 59 O2      29.9874   101.7744    36.9955 O.3   1 <1>  -0.6800 
 60 C3      29.5799   102.7911    39.2065 C.3   1 <1>   0.2201 
 61 C4      30.2687   103.5490    40.3687 C.3   1 <1>   0.2000 
 62 C5      31.0137   104.7959    39.8329 C.3   1 <1>   0.2000 
 63 O5      31.8773   104.4090    38.7083 O.3   1 <1>  -0.5600 
 64 C6      31.9468   105.4245    40.8784 C.3   1 <1>   0.1200 
 65 O6      32.9119   104.4876    41.3327 O.3   1 <1>  -0.6800 
 66 NQ      28.9762   101.5210    39.6373 N.am  1 <1>  -0.7301 
 67 HQ      29.4552   100.6868    39.3370 H     1 <1>   0.3700 
 68 C1      28.3466   105.7220    33.4547 C.3   1 <1>   0.4800 
 69 O1      27.8122   106.8855    34.1257 O.3   1 <1>  -0.5600 
 70 C2      27.8405   104.4348    34.1638 C.3   1 <1>   0.2000 
 71 O2      26.4122   104.3552    34.1039 O.3   1 <1>  -0.6800 
 72 C3      28.3008   104.4477    35.6318 C.3   1 <1>   0.2000 
 73 O3      27.8542   103.2356    36.2359 O.3   1 <1>  -0.6800 
 74 C4      29.8336   104.5834    35.7131 C.3   1 <1>   0.2000 
 75 C5      30.2874   105.8632    34.9918 C.3   1 <1>   0.2000 
 76 O5      29.7827   105.8100    33.6112 O.3   1 <1>  -0.5600 
 77 C6      31.8175   105.9634    34.9168 C.3   1 <1>   0.1200 
 78 O6      32.3585   104.8791    34.1789 O.3   1 <1>  -0.6800 
 79 H1      24.8608   110.9653    32.6129 H     1 <1>   0.0800 
 80 H2      25.4592   108.8346    31.3743 H     1 <1>   0.0800 
 81 H2      23.2955   108.4405    33.2120 H     1 <1>   0.4000 
 82 H3      25.3296   107.6048    34.1640 H     1 <1>   0.0800 
 83 H3      24.5579   106.4766    32.1804 H     1 <1>   0.4000 
 84 H4      27.6837   107.8903    32.2465 H     1 <1>   0.0800 
 85 H5      27.2896   109.2429    34.9441 H     1 <1>   0.0800 
 86 H61     29.2325   110.5389    34.3250 H     1 <1>   0.0800 
 87 H62     29.6464   108.8237    34.1409 H     1 <1>   0.0800 
 88 H6      28.7312   110.5148    32.0516 H     1 <1>   0.4000 
 89 H1      20.7551   111.4688    37.3550 H     1 <1>   0.0800 
 90 H2      20.8829   110.0271    35.2990 H     1 <1>   0.0800 
 91 H2      20.7691   109.1258    37.8416 H     1 <1>   0.4000 
 92 H3      23.5404   109.1171    36.4836 H     1 <1>   0.0800 
 93 H3      22.1125   107.6409    35.3511 H     1 <1>   0.4000 
 94 H4      22.9776   110.6852    33.9327 H     1 <1>   0.0800 
 95 H5      24.4102   111.5971    36.4681 H     1 <1>   0.0800 
 96 H61     24.2700   113.8332    35.4638 H     1 <1>   0.0800 
 97 H62     25.1907   112.7294    34.4287 H     1 <1>   0.0800 
 98 H6      22.4494   113.4308    34.1347 H     1 <1>   0.4000 
 99 H1      22.4478   111.0652    43.3162 H     1 <1>   0.0800 
100 H2      20.5782   111.2898    41.6208 H     1 <1>   0.0800 
101 H2      21.2550   108.5446    42.0809 H     1 <1>   0.4000 
102 H3      22.2359   109.2680    40.0491 H     1 <1>   0.0800 
103 H3      19.8319   109.2535    40.0975 H     1 <1>   0.4000 
104 H4      21.5243   112.1510    39.3554 H     1 <1>   0.0800 
105 H5      24.2676   111.0058    40.0116 H     1 <1>   0.0800 
106 H61     24.9841   113.3075    40.0392 H     1 <1>   0.0800 
107 H62     24.1287   113.0320    38.5095 H     1 <1>   0.0800 
108 H6      22.9543   114.0998    40.8636 H     1 <1>   0.4000 
109 H1      25.1506   105.6988    45.0371 H     1 <1>   0.0800 
110 H2      22.8710   106.3319    44.2133 H     1 <1>   0.0800 
111 H2      24.4554   104.4788    43.1160 H     1 <1>   0.4000 
112 H3      24.3706   107.2965    41.7388 H     1 <1>   0.0800 
113 H3      22.2879   106.2473    41.5700 H     1 <1>   0.4000 
114 H4      22.7995   108.8378    43.8487 H     1 <1>   0.0800 
115 H5      25.7745   108.9174    43.1677 H     1 <1>   0.0800 
116 H61     25.9701   110.2635    45.2185 H     1 <1>   0.0800 
117 H62     24.9255   111.0598    44.0303 H     1 <1>   0.0800 
118 H6      24.0801   109.4968    46.2511 H     1 <1>   0.4000 
119 H1      30.3419   103.2445    42.9019 H     1 <1>   0.0800 
120 H2      28.3784   103.1440    44.4590 H     1 <1>   0.0800 
121 H2      27.7474   102.0915    41.8914 H     1 <1>   0.4000 
122 H3      26.8254   104.2244    42.0620 H     1 <1>   0.0800 
123 H3      25.9183   102.6102    43.5680 H     1 <1>   0.4000 
124 H4      27.4188   105.5069    44.7709 H     1 <1>   0.0800 
125 H5      28.3313   106.3297    41.9826 H     1 <1>   0.0800 
126 H61     29.7284   107.9272    43.1227 H     1 <1>   0.0800 
127 H62     28.0805   108.1417    43.7422 H     1 <1>   0.0800 
128 H6      30.0677   106.5234    44.9611 H     1 <1>   0.4000 
129 H1      31.9622   103.5664    36.7990 H     1 <1>   0.0800 
130 H2      31.3746   101.8206    38.5080 H     1 <1>   0.0800 
131 H2      29.1827   102.2843    36.7552 H     1 <1>   0.4000 
132 H3      28.8033   103.4400    38.7945 H     1 <1>   0.0800 
133 H4      30.9813   102.8734    40.8438 H     1 <1>   0.0800 
134 H5      30.2749   105.5412    39.5328 H     1 <1>   0.0800 
135 H61     32.4574   106.2736    40.4215 H     1 <1>   0.0800 
136 H62     31.3685   105.7979    41.7193 H     1 <1>   0.0800 
137 H6      33.4535   104.2435    40.5731 H     1 <1>   0.4000 
138 H1      28.0688   105.6967    32.4076 H     1 <1>   0.0800 
139 H2      28.2636   103.5555    33.6768 H     1 <1>   0.0800 
140 H2      26.0716   105.1096    33.5848 H     1 <1>   0.4000 
141 H3      27.8436   105.2969    36.1436 H     1 <1>   0.0800 
142 H3      26.9040   103.1923    36.0475 H     1 <1>   0.4000 
143 H4      30.2838   103.7206    35.2183 H     1 <1>   0.0800 
144 H5      29.9084   106.7298    35.5357 H     1 <1>   0.0800 
145 H61     32.0831   106.9025    34.4285 H     1 <1>   0.0800 
146 H62     32.2333   105.9686    35.9258 H     1 <1>   0.0800 
147 H6      31.9810   104.9248    33.2919 H     1 <1>   0.4000 
148 C       30.2607   100.3075    31.0880 C.3   1 <1>  -0.1600 
149 C       30.4617   100.8248    29.6461 C.3   1 <1>  -0.1600 
150 C       30.1444    99.7885    28.5552 C.3   1 <1>   0.2000 
151 O       31.0744    99.9064    27.5040 O.3   1 <1>  -0.6800 
152 C       30.2290    98.3674    29.1031 C.3   1 <1>  -0.1600 
153 C       29.2518    98.1178    30.2800 C.3   1 <1>  -0.0800 
154 C       29.7508    96.8444    30.9788 C.3   1 <1>  -0.1600 
155 C       28.8204    96.3784    32.1033 C.3   1 <1>   0.2000 
156 O       29.6153    95.4932    32.8692 O.3   1 <1>  -0.6800 
157 C       28.1897    97.5425    32.9220 C.3   1 <1>  -0.0800 
158 C       27.9873    97.1902    34.4182 C.3   1 <1>  -0.0800 
159 C       27.1376    95.9593    34.7532 C.3   1 <1>  -0.1600 
160 C       26.7861    96.1380    36.2379 C.3   1 <1>  -0.1600 
161 C       27.2904    97.5424    36.6435 C.3   1 <1>  -0.0800 
162 C       26.6221    98.1313    37.9276 C.3   1 <1>  -0.0800 
163 C       27.2164    99.5160    38.2496 C.3   1 <1>  -0.1600 
164 C       27.0879    99.9827    39.7118 C.3   1 <1>  -0.0990 
165 C       27.6792   101.3764    39.8895 C.2   1 <1>   0.5690 
166 C       25.0808    98.2025    37.9631 C.3   1 <1>  -0.2400 
167 C       27.3738    98.3101    35.2871 C.3   1 <1>   0.0000 
168 C       25.9608    98.7570    34.8161 C.3   1 <1>  -0.2400 
169 C       28.3415    99.5245    35.2090 C.3   1 <1>   0.2000 
170 O       29.6111    99.2854    35.7928 O.3   1 <1>  -0.6800 
171 C       28.5667    99.9788    33.7583 C.3   1 <1>  -0.1600 
172 C       29.0106    98.8585    32.7695 C.3   1 <1>  -0.0800 
173 C       29.0728    99.3255    31.2661 C.3   1 <1>   0.0000 
174 C       27.7729   100.0730    30.8618 C.3   1 <1>  -0.2400 
175 O       26.9784   102.3084    40.2589 O.2   1 <1>  -0.5700 
176 H       28.2769    97.8768    29.8507 H     1 <1>   0.0800 
177 H       30.0264    98.5983    33.0767 H     1 <1>   0.0800 
178 H       27.2054    97.7101    32.4924 H     1 <1>   0.0800 
179 H       28.9870    96.9870    34.8127 H     1 <1>   0.0800 
180 H       31.1744    99.7927    31.3917 H     1 <1>   0.0800 
181 H       30.1469   101.1697    31.7438 H     1 <1>   0.0800 
182 H       29.8201   101.6914    29.4862 H     1 <1>   0.0800 
183 H       31.4976   101.1545    29.5495 H     1 <1>   0.0800 
184 H       29.1385    99.9551    28.1664 H     1 <1>   0.0800 
185 H       31.0319   100.7970    27.1476 H     1 <1>   0.4000 
186 H       30.0175    97.6622    28.2984 H     1 <1>   0.0800 
187 H       31.2575    98.2039    29.4306 H     1 <1>   0.0800 
188 H       29.8445    96.0391    30.2493 H     1 <1>   0.0800 
189 H       30.7404    97.0445    31.3963 H     1 <1>   0.0800 
190 H       27.9987    95.8086    31.6647 H     1 <1>   0.0800 
191 H       30.0262    94.8553    32.2825 H     1 <1>   0.4000 
192 H       27.6995    95.0381    34.5955 H     1 <1>   0.0800 
193 H       26.2304    95.9500    34.1481 H     1 <1>   0.0800 
194 H       25.7090    96.0397    36.3483 H     1 <1>   0.0800 
195 H       27.2813    95.3770    36.8430 H     1 <1>   0.0800 
196 H       28.3292    97.3822    36.9437 H     1 <1>   0.0800 
197 H       26.9143    97.4594    38.7377 H     1 <1>   0.0800 
198 H       26.7480   100.2636    37.6084 H     1 <1>   0.0800 
199 H       28.2804    99.4881    38.0180 H     1 <1>   0.0800 
200 H       26.0399   100.0216    40.0049 H     1 <1>   0.0800 
201 H       27.6129    99.2888    40.3675 H     1 <1>   0.0800 
202 H       24.7439    98.5077    38.9525 H     1 <1>   0.0800 
203 H       24.6402    97.2277    37.7681 H     1 <1>   0.0800 
204 H       24.7005    98.9201    37.2404 H     1 <1>   0.0800 
205 H       25.2228    97.9730    34.9773 H     1 <1>   0.0800 
206 H       25.6537    99.6435    35.3683 H     1 <1>   0.0800 
207 H       25.9500    99.0081    33.7585 H     1 <1>   0.0800 
208 H       27.8854   100.3584    35.7409 H     1 <1>   0.0800 
209 H       29.9416   100.1325    36.1329 H     1 <1>   0.4000 
210 H       29.3191   100.7654    33.7723 H     1 <1>   0.0800 
211 H       27.6377   100.4321    33.4264 H     1 <1>   0.0800 
212 H       27.7327   101.0592    31.3234 H     1 <1>   0.0800 
213 H       27.7134   100.2171    29.7859 H     1 <1>   0.0800 
214 H       26.8944    99.5051    31.1651 H     1 <1>   0.0800 
@<TRIPOS>BOND
  1   1   2  1   
  2   1   3  1   
  3   1   9  1   
  4   1  79  1   
  5   2  18  1   
  6   3   4  1   
  7   3   5  1   
  8   3  80  1   
  9   4  81  1   
 10   5   6  1   
 11   5   7  1   
 12   5  82  1   
 13   6  83  1   
 14   7   8  1   
 15   7  69  1   
 16   7  84  1   
 17   8   9  1   
 18   8  10  1   
 19   8  85  1   
 20  10  11  1   
 21  10  86  1   
 22  10  87  1   
 23  11  88  1   
 24  12  13  1   
 25  12  14  1   
 26  12  20  1   
 27  12  89  1   
 28  13  29  1   
 29  14  15  1   
 30  14  16  1   
 31  14  90  1   
 32  15  91  1   
 33  16  17  1   
 34  16  18  1   
 35  16  92  1   
 36  17  93  1   
 37  18  19  1   
 38  18  94  1   
 39  19  20  1   
 40  19  21  1   
 41  19  95  1   
 42  21  22  1   
 43  21  96  1   
 44  21  97  1   
 45  22  98  1   
 46  23  24  1   
 47  23  25  1   
 48  23  31  1   
 49  23  99  1   
 50  24  40  1   
 51  25  26  1   
 52  25  27  1   
 53  25 100  1   
 54  26 101  1   
 55  27  28  1   
 56  27  29  1   
 57  27 102  1   
 58  28 103  1   
 59  29  30  1   
 60  29 104  1   
 61  30  31  1   
 62  30  32  1   
 63  30 105  1   
 64  32  33  1   
 65  32 106  1   
 66  32 107  1   
 67  33 108  1   
 68  34  35  1   
 69  34  36  1   
 70  34  42  1   
 71  34 109  1   
 72  35  51  1   
 73  36  37  1   
 74  36  38  1   
 75  36 110  1   
 76  37 111  1   
 77  38  39  1   
 78  38  40  1   
 79  38 112  1   
 80  39 113  1   
 81  40  41  1   
 82  40 114  1   
 83  41  42  1   
 84  41  43  1   
 85  41 115  1   
 86  43  44  1   
 87  43 116  1   
 88  43 117  1   
 89  44 118  1   
 90  45  46  1   
 91  45  47  1   
 92  45  53  1   
 93  45 119  1   
 94  46  61  1   
 95  47  48  1   
 96  47  49  1   
 97  47 120  1   
 98  48 121  1   
 99  49  50  1   
100  49  51  1   
101  49 122  1   
102  50 123  1   
103  51  52  1   
104  51 124  1   
105  52  53  1   
106  52  54  1   
107  52 125  1   
108  54  55  1   
109  54 126  1   
110  54 127  1   
111  55 128  1   
112  56  57  1   
113  56  58  1   
114  56  63  1   
115  56 129  1   
116  57  74  1   
117  58  59  1   
118  58  60  1   
119  58 130  1   
120  59 131  1   
121  60  61  1   
122  60  66  1   
123  60 132  1   
124  61  62  1   
125  61 133  1   
126  62  63  1   
127  62  64  1   
128  62 134  1   
129  64  65  1   
130  64 135  1   
131  64 136  1   
132  65 137  1   
133  66  67  1   
134  66 165  am  
135  68  69  1   
136  68  70  1   
137  68  76  1   
138  68 138  1   
139  70  71  1   
140  70  72  1   
141  70 139  1   
142  71 140  1   
143  72  73  1   
144  72  74  1   
145  72 141  1   
146  73 142  1   
147  74  75  1   
148  74 143  1   
149  75  76  1   
150  75  77  1   
151  75 144  1   
152  77  78  1   
153  77 145  1   
154  77 146  1   
155  78 147  1   
156 148 149  1   
157 148 173  1   
158 148 180  1   
159 148 181  1   
160 149 150  1   
161 149 182  1   
162 149 183  1   
163 150 151  1   
164 150 152  1   
165 150 184  1   
166 151 185  1   
167 152 153  1   
168 152 186  1   
169 152 187  1   
170 153 154  1   
171 153 173  1   
172 153 176  1   
173 154 155  1   
174 154 188  1   
175 154 189  1   
176 155 156  1   
177 155 157  1   
178 155 190  1   
179 156 191  1   
180 157 158  1   
181 157 172  1   
182 157 178  1   
183 158 159  1   
184 158 167  1   
185 158 179  1   
186 159 160  1   
187 159 192  1   
188 159 193  1   
189 160 161  1   
190 160 194  1   
191 160 195  1   
192 161 162  1   
193 161 167  1   
194 161 196  1   
195 162 163  1   
196 162 166  1   
197 162 197  1   
198 163 164  1   
199 163 198  1   
200 163 199  1   
201 164 165  1   
202 164 200  1   
203 164 201  1   
204 165 175  2   
205 166 202  1   
206 166 203  1   
207 166 204  1   
208 167 168  1   
209 167 169  1   
210 168 205  1   
211 168 206  1   
212 168 207  1   
213 169 170  1   
214 169 171  1   
215 169 208  1   
216 170 209  1   
217 171 172  1   
218 171 210  1   
219 171 211  1   
220 172 173  1   
221 172 177  1   
222 173 174  1   
223 174 212  1   
224 174 213  1   
225 174 214  1   
@<TRIPOS>SUBSTRUCTURE
  1 ****  72 GROUP 4 **** **** 0

# MOE 2018.01 (io_trps.svl 2018.01)
