@<TRIPOS>MOLECULE
MGLab36_renumber.pdb
214 225 7 0 0
SMALL
NO_CHARGES


@<TRIPOS>ATOM
      1 C1         25.3430  110.1360   33.1190 C.3       1 MGO    0.0000
      2 O1         24.9320  110.0370   34.5070 O.3       1 MGO    0.0000
      3 C2         25.0520  108.7970   32.3850 C.3       1 MGO    0.0000
      4 O2         23.6450  108.5630   32.3040 O.3       1 MGO    0.0000
      5 C3         25.7400  107.6550   33.1530 C.3       1 MGO    0.0000
      6 O3         25.4770  106.4220   32.4840 O.3       1 MGO    0.0000
      7 C4         27.2550  107.9090   33.2500 C.3       1 MGO    0.0000
      8 C5         27.5480  109.2800   33.8840 C.3       1 MGO    0.0000
      9 O5         26.7800  110.3150   33.1620 O.3       1 MGO    0.0000
     10 C6         29.0350  109.6360   33.7460 C.3       1 MGO    0.0000
     11 O6         29.3700  109.8730   32.3880 O.3       1 MGO    0.0000
     12 H1         24.8610  110.9650   32.6130 H         1 MGO    0.0000
     13 H2         25.4590  108.8350   31.3740 H         1 MGO    0.0000
     14 H2         23.2950  108.4410   33.2120 H         1 MGO    0.0000
     15 H3         25.3300  107.6050   34.1640 H         1 MGO    0.0000
     16 H3         24.5580  106.4770   32.1800 H         1 MGO    0.0000
     17 H4         27.6840  107.8900   32.2460 H         1 MGO    0.0000
     18 H5         27.2900  109.2430   34.9440 H         1 MGO    0.0000
     19 H61        29.2320  110.5390   34.3250 H         1 MGO    0.0000
     20 H62        29.6460  108.8240   34.1410 H         1 MGO    0.0000
     21 H6         28.7310  110.5150   32.0520 H         1 MGO    0.0000
     22 C1         21.7150  111.1190   36.9940 C.3       2 MGO    0.0000
     23 O1         22.6410  110.8570   38.0760 O.3       2 MGO    0.0000
     24 C2         21.5310  109.8260   36.1530 C.3       2 MGO    0.0000
     25 O2         20.9500  108.7840   36.9440 O.3       2 MGO    0.0000
     26 C3         22.9040  109.3690   35.6330 C.3       2 MGO    0.0000
     27 O3         22.7090  108.2050   34.8340 O.3       2 MGO    0.0000
     28 C4         23.5820  110.4860   34.8200 C.3       2 MGO    0.0000
     29 C5         23.6990  111.7700   35.6590 C.3       2 MGO    0.0000
     30 O5         22.3620  112.1160   36.1660 O.3       2 MGO    0.0000
     31 C6         24.1970  112.9550   34.8210 C.3       2 MGO    0.0000
     32 O6         23.3090  113.2250   33.7480 O.3       2 MGO    0.0000
     33 H1         20.7550  111.4690   37.3550 H         2 MGO    0.0000
     34 H2         20.8830  110.0270   35.2990 H         2 MGO    0.0000
     35 H2         20.7690  109.1260   37.8420 H         2 MGO    0.0000
     36 H3         23.5400  109.1170   36.4840 H         2 MGO    0.0000
     37 H3         22.1120  107.6410   35.3510 H         2 MGO    0.0000
     38 H4         22.9780  110.6850   33.9330 H         2 MGO    0.0000
     39 H5         24.4100  111.5970   36.4680 H         2 MGO    0.0000
     40 H61        24.2700  113.8330   35.4640 H         2 MGO    0.0000
     41 H62        25.1910  112.7290   34.4290 H         2 MGO    0.0000
     42 H6         22.4490  113.4310   34.1350 H         2 MGO    0.0000
     43 C1         22.6100  110.8350   42.2690 C.3       3 MGO    0.0000
     44 O1         23.5830  109.7710   42.0940 O.3       3 MGO    0.0000
     45 C2         21.2720  110.4500   41.5750 C.3       3 MGO    0.0000
     46 O2         20.6770  109.3230   42.2230 O.3       3 MGO    0.0000
     47 C3         21.5580  110.1230   40.1000 C.3       3 MGO    0.0000
     48 O3         20.3320  109.7810   39.4570 O.3       3 MGO    0.0000
     49 C4         22.2270  111.3160   39.3940 C.3       3 MGO    0.0000
     50 C5         23.4940  111.7640   40.1430 C.3       3 MGO    0.0000
     51 O5         23.1610  111.9740   41.5640 O.3       3 MGO    0.0000
     52 C6         24.0110  113.1000   39.5920 C.3       3 MGO    0.0000
     53 O6         23.1190  114.1550   39.9140 O.3       3 MGO    0.0000
     54 H1         22.4480  111.0650   43.3160 H         3 MGO    0.0000
     55 H2         20.5780  111.2900   41.6210 H         3 MGO    0.0000
     56 H2         21.2550  108.5450   42.0810 H         3 MGO    0.0000
     57 H3         22.2360  109.2680   40.0490 H         3 MGO    0.0000
     58 H3         19.8320  109.2530   40.0980 H         3 MGO    0.0000
     59 H4         21.5240  112.1510   39.3550 H         3 MGO    0.0000
     60 H5         24.2680  111.0060   40.0120 H         3 MGO    0.0000
     61 H61        24.9840  113.3080   40.0390 H         3 MGO    0.0000
     62 H62        24.1290  113.0320   38.5090 H         3 MGO    0.0000
     63 H6         22.9540  114.1000   40.8640 H         3 MGO    0.0000
     64 C1         25.0490  106.4540   44.2670 C.3       4 MGO    0.0000
     65 O1         26.1430  106.4100   43.3170 O.3       4 MGO    0.0000
     66 C2         23.7030  106.2640   43.5120 C.3       4 MGO    0.0000
     67 O2         23.6620  104.9890   42.8630 O.3       4 MGO    0.0000
     68 C3         23.5570  107.3770   42.4620 C.3       4 MGO    0.0000
     69 O3         22.3140  107.1920   41.7910 O.3       4 MGO    0.0000
     70 C4         23.6260  108.7570   43.1400 C.3       4 MGO    0.0000
     71 C5         24.9590  108.9050   43.8920 C.3       4 MGO    0.0000
     72 O5         25.0790  107.7870   44.8380 O.3       4 MGO    0.0000
     73 C6         25.0080  110.2070   44.7060 C.3       4 MGO    0.0000
     74 O6         23.9590  110.2500   45.6600 O.3       4 MGO    0.0000
     75 H1         25.1510  105.6990   45.0370 H         4 MGO    0.0000
     76 H2         22.8710  106.3320   44.2130 H         4 MGO    0.0000
     77 H2         24.4550  104.4790   43.1160 H         4 MGO    0.0000
     78 H3         24.3710  107.2960   41.7390 H         4 MGO    0.0000
     79 H3         22.2880  106.2470   41.5700 H         4 MGO    0.0000
     80 H4         22.8000  108.8380   43.8490 H         4 MGO    0.0000
     81 H5         25.7750  108.9170   43.1680 H         4 MGO    0.0000
     82 H61        25.9700  110.2630   45.2190 H         4 MGO    0.0000
     83 H62        24.9260  111.0600   44.0300 H         4 MGO    0.0000
     84 H6         24.0800  109.4970   46.2510 H         4 MGO    0.0000
     85 C1         29.4710  103.8590   42.7090 C.3       5 MGO    0.0000
     86 O1         29.2230  104.0200   41.2870 O.3       5 MGO    0.0000
     87 C2         28.2190  103.2370   43.3840 C.3       5 MGO    0.0000
     88 O2         27.9670  101.9490   42.8330 O.3       5 MGO    0.0000
     89 C3         27.0040  104.1490   43.1370 C.3       5 MGO    0.0000
     90 O3         25.8630  103.5590   43.7580 O.3       5 MGO    0.0000
     91 C4         27.2690  105.5610   43.6910 C.3       5 MGO    0.0000
     92 C5         28.5310  106.1440   43.0390 C.3       5 MGO    0.0000
     93 O5         29.6450  105.1990   43.2370 O.3       5 MGO    0.0000
     94 C6         28.9350  107.4650   43.7120 C.3       5 MGO    0.0000
     95 O6         29.4140  107.2310   45.0260 O.3       5 MGO    0.0000
     96 H1         30.3420  103.2450   42.9020 H         5 MGO    0.0000
     97 H2         28.3780  103.1440   44.4590 H         5 MGO    0.0000
     98 H2         27.7470  102.0920   41.8910 H         5 MGO    0.0000
     99 H3         26.8250  104.2240   42.0620 H         5 MGO    0.0000
    100 H3         25.9180  102.6100   43.5680 H         5 MGO    0.0000
    101 H4         27.4190  105.5070   44.7710 H         5 MGO    0.0000
    102 H5         28.3310  106.3300   41.9830 H         5 MGO    0.0000
    103 H61        29.7280  107.9270   43.1230 H         5 MGO    0.0000
    104 H62        28.0800  108.1420   43.7420 H         5 MGO    0.0000
    105 H6         30.0680  106.5230   44.9610 H         5 MGO    0.0000
    106 C1         31.2410  103.7750   37.5810 C.3       6 UNK    0.0000
    107 O1         30.2110  104.6940   37.1250 O.3       6 UNK    0.0000
    108 C2         30.5980  102.4620   38.0900 C.3       6 UNK    0.0000
    109 O2         29.9870  101.7740   36.9960 O.3       6 UNK    0.0000
    110 C3         29.5800  102.7910   39.2070 C.3       6 UNK    0.0000
    111 C4         30.2690  103.5490   40.3690 C.3       6 UNK    0.0000
    112 C5         31.0140  104.7960   39.8330 C.3       6 UNK    0.0000
    113 O5         31.8770  104.4090   38.7080 O.3       6 UNK    0.0000
    114 C6         31.9470  105.4250   40.8780 C.3       6 UNK    0.0000
    115 O6         32.9120  104.4880   41.3330 O.3       6 UNK    0.0000
    116 NQ         28.9760  101.5210   39.6370 N.am      6 UNK    0.0000
    117 C7         30.2610  100.3080   31.0880 C.3       6 UNK    0.0000
    118 C8         30.4620  100.8250   29.6460 C.3       6 UNK    0.0000
    119 C9         30.1440   99.7880   28.5550 C.3       6 UNK    0.0000
    120 O7         31.0740   99.9060   27.5040 O.3       6 UNK    0.0000
    121 C10        30.2290   98.3670   29.1030 C.3       6 UNK    0.0000
    122 C11        29.2520   98.1180   30.2800 C.3       6 UNK    0.0000
    123 C12        29.7510   96.8440   30.9790 C.3       6 UNK    0.0000
    124 C13        28.8200   96.3780   32.1030 C.3       6 UNK    0.0000
    125 O8         29.6150   95.4930   32.8690 O.3       6 UNK    0.0000
    126 C14        28.1900   97.5430   32.9220 C.3       6 UNK    0.0000
    127 C15        27.9870   97.1900   34.4180 C.3       6 UNK    0.0000
    128 C16        27.1380   95.9590   34.7530 C.3       6 UNK    0.0000
    129 C17        26.7860   96.1380   36.2380 C.3       6 UNK    0.0000
    130 C18        27.2900   97.5420   36.6430 C.3       6 UNK    0.0000
    131 C19        26.6220   98.1310   37.9280 C.3       6 UNK    0.0000
    132 C20        27.2160   99.5160   38.2500 C.3       6 UNK    0.0000
    133 C21        27.0880   99.9830   39.7120 C.3       6 UNK    0.0000
    134 C22        27.6790  101.3760   39.8890 C.2       6 UNK    0.0000
    135 C23        25.0810   98.2020   37.9630 C.3       6 UNK    0.0000
    136 C24        27.3740   98.3100   35.2870 C.3       6 UNK    0.0000
    137 C25        25.9610   98.7570   34.8160 C.3       6 UNK    0.0000
    138 C26        28.3420   99.5240   35.2090 C.3       6 UNK    0.0000
    139 O9         29.6110   99.2850   35.7930 O.3       6 UNK    0.0000
    140 C27        28.5670   99.9790   33.7580 C.3       6 UNK    0.0000
    141 C28        29.0110   98.8590   32.7690 C.3       6 UNK    0.0000
    142 C29        29.0730   99.3250   31.2660 C.3       6 UNK    0.0000
    143 C30        27.7730  100.0730   30.8620 C.3       6 UNK    0.0000
    144 O10        26.9780  102.3080   40.2590 O.2       6 UNK    0.0000
    145 H1         31.9620  103.5660   36.7990 H         6 UNK    0.0000
    146 H2         31.3750  101.8210   38.5080 H         6 UNK    0.0000
    147 H2         29.1830  102.2840   36.7550 H         6 UNK    0.0000
    148 H3         28.8030  103.4400   38.7940 H         6 UNK    0.0000
    149 H4         30.9810  102.8730   40.8440 H         6 UNK    0.0000
    150 H5         30.2750  105.5410   39.5330 H         6 UNK    0.0000
    151 H61        32.4570  106.2740   40.4220 H         6 UNK    0.0000
    152 H62        31.3690  105.7980   41.7190 H         6 UNK    0.0000
    153 H6         33.4540  104.2430   40.5730 H         6 UNK    0.0000
    154 HQ         29.5779  100.7173   39.7465 H         6 UNK    0.0000
    155 H72        31.1733   99.7967   31.3953 H         6 UNK    0.0000
    156 H73        30.1047  101.1637   31.7448 H         6 UNK    0.0000
    157 H82        29.8116  101.6871   29.4982 H         6 UNK    0.0000
    158 H83        31.4975  101.1455   29.5315 H         6 UNK    0.0000
    159 H9         29.1401   99.9664   28.1697 H         6 UNK    0.0000
    160 H102       31.2463   98.1884   29.4512 H         6 UNK    0.0000
    161 H103       30.0019   97.6649   28.3008 H         6 UNK    0.0000
    162 H11        28.2741   97.8959   29.8529 H         6 UNK    0.0000
    163 H122       29.8275   96.0481   30.2382 H         6 UNK    0.0000
    164 H123       30.7400   97.0344   31.3959 H         6 UNK    0.0000
    165 H13        28.0098   95.8029   31.6546 H         6 UNK    0.0000
    166 H14        27.2023   97.7318   32.5013 H         6 UNK    0.0000
    167 H15        28.9799   96.9965   34.8241 H         6 UNK    0.0000
    168 H162       26.2356   95.9338   34.1421 H         6 UNK    0.0000
    169 H163       27.7186   95.0479   34.6086 H         6 UNK    0.0000
    170 H172       27.2808   95.3733   36.8368 H         6 UNK    0.0000
    171 H173       25.7063   96.0766   36.3745 H         6 UNK    0.0000
    172 H18        28.3300   97.3834   36.9281 H         6 UNK    0.0000
    173 H19        26.9145   97.4768   38.7493 H         6 UNK    0.0000
    174 H202       26.7118  100.2493   37.6206 H         6 UNK    0.0000
    175 H203       28.2732   99.5057   37.9848 H         6 UNK    0.0000
    176 H212       27.6200   99.2846   40.3579 H         6 UNK    0.0000
    177 H213       26.0349  100.0011   39.9926 H         6 UNK    0.0000
    178 H26        27.8799  100.3513   35.7477 H         6 UNK    0.0000
    179 H272       27.6326  100.4023   33.3894 H         6 UNK    0.0000
    180 H273       29.3253  100.7620   33.7555 H         6 UNK    0.0000
    181 H28        30.0346   98.6058   33.0452 H         6 UNK    0.0000
    182 H231       24.6662   97.2202   37.7347 H         6 UNK    0.0000
    183 H232       24.7543   98.5123   38.9555 H         6 UNK    0.0000
    184 H233       24.7337   98.9240   37.2239 H         6 UNK    0.0000
    185 HO9        29.5497   99.3890   36.7454 H         6 UNK    0.0000
    186 H301       27.6370  100.0092   29.7824 H         6 UNK    0.0000
    187 H302       27.8496  101.1195   31.1570 H         6 UNK    0.0000
    188 H303       26.9200   99.6157   31.3633 H         6 UNK    0.0000
    189 HO7        31.0382  100.7947   27.1427 H         6 UNK    0.0000
    190 H251       25.9930   99.0064   33.7554 H         6 UNK    0.0000
    191 H252       25.2511   97.9457   34.9770 H         6 UNK    0.0000
    192 H253       25.6480   99.6320   35.3857 H         6 UNK    0.0000
    193 HO8        29.9049   94.7637   32.3162 H         6 UNK    0.0000
    194 C1         28.3470  105.7220   33.4550 C.3       7 MGO    0.0000
    195 O1         27.8120  106.8860   34.1260 O.3       7 MGO    0.0000
    196 C2         27.8410  104.4350   34.1640 C.3       7 MGO    0.0000
    197 O2         26.4120  104.3550   34.1040 O.3       7 MGO    0.0000
    198 C3         28.3010  104.4480   35.6320 C.3       7 MGO    0.0000
    199 O3         27.8540  103.2360   36.2360 O.3       7 MGO    0.0000
    200 C4         29.8340  104.5830   35.7130 C.3       7 MGO    0.0000
    201 C5         30.2870  105.8630   34.9920 C.3       7 MGO    0.0000
    202 O5         29.7830  105.8100   33.6110 O.3       7 MGO    0.0000
    203 C6         31.8170  105.9630   34.9170 C.3       7 MGO    0.0000
    204 O6         32.3580  104.8790   34.1790 O.3       7 MGO    0.0000
    205 H1         28.0690  105.6970   32.4080 H         7 MGO    0.0000
    206 H2         28.2640  103.5550   33.6770 H         7 MGO    0.0000
    207 H2         26.0720  105.1100   33.5850 H         7 MGO    0.0000
    208 H3         27.8440  105.2970   36.1440 H         7 MGO    0.0000
    209 H3         26.9040  103.1920   36.0470 H         7 MGO    0.0000
    210 H4         30.2840  103.7210   35.2180 H         7 MGO    0.0000
    211 H5         29.9080  106.7300   35.5360 H         7 MGO    0.0000
    212 H61        32.0830  106.9030   34.4280 H         7 MGO    0.0000
    213 H62        32.2330  105.9690   35.9260 H         7 MGO    0.0000
    214 H6         31.9810  104.9250   33.2920 H         7 MGO    0.0000
@<TRIPOS>BOND
     1    1    2 1
     2    1    3 1
     3    1    9 1
     4    1   12 1
     5    2   28 1
     6    3    4 1
     7    3    5 1
     8    3   13 1
     9    4   14 1
    10    5    6 1
    11    5    7 1
    12    5   15 1
    13    6   16 1
    14    7    8 1
    15    7  195 1
    16    7   17 1
    17    8    9 1
    18    8   10 1
    19    8   18 1
    20   10   11 1
    21   10   19 1
    22   10   20 1
    23   11   21 1
    24   22   23 1
    25   22   24 1
    26   22   30 1
    27   22   33 1
    28   23   49 1
    29   24   25 1
    30   24   26 1
    31   24   34 1
    32   25   35 1
    33   26   27 1
    34   26   28 1
    35   26   36 1
    36   27   37 1
    37   28   29 1
    38   28   38 1
    39   29   30 1
    40   29   31 1
    41   29   39 1
    42   31   32 1
    43   31   40 1
    44   31   41 1
    45   32   42 1
    46   43   44 1
    47   43   45 1
    48   43   51 1
    49   43   54 1
    50   44   70 1
    51   45   46 1
    52   45   47 1
    53   45   55 1
    54   46   56 1
    55   47   48 1
    56   47   49 1
    57   47   57 1
    58   48   58 1
    59   49   50 1
    60   49   59 1
    61   50   51 1
    62   50   52 1
    63   50   60 1
    64   52   53 1
    65   52   61 1
    66   52   62 1
    67   53   63 1
    68   64   65 1
    69   64   66 1
    70   64   72 1
    71   64   75 1
    72   65   91 1
    73   66   67 1
    74   66   68 1
    75   66   76 1
    76   67   77 1
    77   68   69 1
    78   68   70 1
    79   68   78 1
    80   69   79 1
    81   70   71 1
    82   70   80 1
    83   71   72 1
    84   71   73 1
    85   71   81 1
    86   73   74 1
    87   73   82 1
    88   73   83 1
    89   74   84 1
    90   85   86 1
    91   85   87 1
    92   85   93 1
    93   85   96 1
    94   86  111 1
    95   87   88 1
    96   87   89 1
    97   87   97 1
    98   88   98 1
    99   89   90 1
   100   89   91 1
   101   89   99 1
   102   90  100 1
   103   91   92 1
   104   91  101 1
   105   92   93 1
   106   92   94 1
   107   92  102 1
   108   94   95 1
   109   94  103 1
   110   94  104 1
   111   95  105 1
   112  106  107 1
   113  106  108 1
   114  106  113 1
   115  106  145 1
   116  107  200 1
   117  108  109 1
   118  108  110 1
   119  108  146 1
   120  109  147 1
   121  110  111 1
   122  110  116 1
   123  110  148 1
   124  111  112 1
   125  111  149 1
   126  112  113 1
   127  112  114 1
   128  112  150 1
   129  114  115 1
   130  114  151 1
   131  114  152 1
   132  115  153 1
   133  116  134 am
   134  194  195 1
   135  194  196 1
   136  194  202 1
   137  194  205 1
   138  196  197 1
   139  196  198 1
   140  196  206 1
   141  197  207 1
   142  198  199 1
   143  198  200 1
   144  198  208 1
   145  199  209 1
   146  200  201 1
   147  200  210 1
   148  201  202 1
   149  201  203 1
   150  201  211 1
   151  203  204 1
   152  203  212 1
   153  203  213 1
   154  204  214 1
   155  117  118 1
   156  117  142 1
   157  118  119 1
   158  119  120 1
   159  119  121 1
   160  121  122 1
   161  122  123 1
   162  122  142 1
   163  123  124 1
   164  124  125 1
   165  124  126 1
   166  126  127 1
   167  126  141 1
   168  127  128 1
   169  127  136 1
   170  128  129 1
   171  129  130 1
   172  130  131 1
   173  130  136 1
   174  131  132 1
   175  131  135 1
   176  132  133 1
   177  133  134 1
   178  134  144 2
   179  136  137 1
   180  136  138 1
   181  138  139 1
   182  138  140 1
   183  140  141 1
   184  141  142 1
   185  142  143 1
   186  154  116 1
   187  155  117 1
   188  156  117 1
   189  157  118 1
   190  158  118 1
   191  159  119 1
   192  160  121 1
   193  161  121 1
   194  162  122 1
   195  163  123 1
   196  164  123 1
   197  165  124 1
   198  166  126 1
   199  167  127 1
   200  168  128 1
   201  169  128 1
   202  170  129 1
   203  171  129 1
   204  172  130 1
   205  173  131 1
   206  174  132 1
   207  175  132 1
   208  176  133 1
   209  177  133 1
   210  178  138 1
   211  179  140 1
   212  180  140 1
   213  181  141 1
   214  182  135 1
   215  183  135 1
   216  184  135 1
   217  185  139 1
   218  186  143 1
   219  187  143 1
   220  188  143 1
   221  189  120 1
   222  190  137 1
   223  191  137 1
   224  192  137 1
   225  193  125 1
@<TRIPOS>SUBSTRUCTURE
     1 MGO     1 RESIDUE           4 A     MGO     2 ROOT
     2 MGO    22 RESIDUE           4 A     MGO     2
     3 MGO    43 RESIDUE           4 A     MGO     2
     4 MGO    64 RESIDUE           4 A     MGO     2
     5 MGO    85 RESIDUE           4 A     MGO     2
     6 UNK   106 RESIDUE           4 A     UNK     2
     7 MGO   194 RESIDUE           4 A     MGO     2
