@<TRIPOS>MOLECULE
MGLab34
170 178 7 0 0 
SMALL
USER_CHARGES


@<TRIPOS>ATOM
  1 C1      25.6250   110.4330    34.1210 C.3   1 MGO  0.0000  
  2 O1      24.6580   110.2900    35.2000 O.3   1 MGO  0.0000  
  3 C2      25.7310   109.1000    33.3480 C.3   1 MGO  0.0000  
  4 O2      24.4530   108.8150    32.8140 O.3   1 MGO  0.0000  
  5 C3      26.2070   107.9810    34.2920 C.3   1 MGO  0.0000  
  6 O3      26.3830   106.7910    33.5490 O.3   1 MGO  0.0000  
  7 C4      27.5440   108.3680    34.9490 C.3   1 MGO  0.0000  
  8 C5      27.4190   109.7180    35.6810 C.3   1 MGO  0.0000  
  9 O5      26.9180   110.7010    34.7280 O.3   1 MGO  0.0000  
 10 C6      28.7490   110.2590    36.2240 C.3   1 MGO  0.0000  
 11 O6      29.7280   110.3780    35.2120 O.3   1 MGO  0.0000  
 12 H1      25.3480   111.2340    33.4500 H     1 MGO  0.0000  
 13 H2      26.4420   109.1920    32.5250 H     1 MGO  0.0000  
 14 H2      23.8220   108.7810    33.5370 H     1 MGO  0.0000  
 15 H3      25.4580   107.8100    35.0670 H     1 MGO  0.0000  
 16 H3      27.0420   106.9500    32.8700 H     1 MGO  0.0000  
 17 H4      28.3080   108.4470    34.1740 H     1 MGO  0.0000  
 18 H5      26.7340   109.6010    36.5220 H     1 MGO  0.0000  
 19 H61     28.5790   111.2400    36.6680 H     1 MGO  0.0000  
 20 H62     29.1200   109.5940    37.0000 H     1 MGO  0.0000  
 21 H6      29.4190   111.0130    34.5620 H     1 MGO  0.0000  
 22 C1      21.4290   112.4820    36.8140 C.3   2 MGO  0.0000  
 23 O1      21.7960   112.0130    38.1430 O.3   2 MGO  0.0000  
 24 C2      21.0940   111.2720    35.9130 C.3   2 MGO  0.0000  
 25 O2      20.0260   110.5720    36.5210 O.3   2 MGO  0.0000  
 26 C3      22.3310   110.3720    35.7570 C.3   2 MGO  0.0000  
 27 O3      22.0310   109.3090    34.8740 O.3   2 MGO  0.0000  
 28 C4      23.5110   111.1770    35.1890 C.3   2 MGO  0.0000  
 29 C5      23.8110   112.3830    36.1030 C.3   2 MGO  0.0000  
 30 O5      22.5830   113.1600    36.2500 O.3   2 MGO  0.0000  
 31 C6      24.8800   113.3480    35.5690 C.3   2 MGO  0.0000  
 32 O6      24.5590   113.8290    34.2790 O.3   2 MGO  0.0000  
 33 H1      20.5780   113.1490    36.8610 H     2 MGO  0.0000  
 34 H2      20.7770   111.6080    34.9250 H     2 MGO  0.0000  
 35 H2      20.2930   110.3190    37.4070 H     2 MGO  0.0000  
 36 H3      22.6090   109.9590    36.7280 H     2 MGO  0.0000  
 37 H3      21.7910   109.6790    34.0220 H     2 MGO  0.0000  
 38 H4      23.2560   111.5200    34.1850 H     2 MGO  0.0000  
 39 H5      24.1540   112.0050    37.0660 H     2 MGO  0.0000  
 40 H61     24.9640   114.1960    36.2490 H     2 MGO  0.0000  
 41 H62     25.8440   112.8460    35.5350 H     2 MGO  0.0000  
 42 H6      23.7400   114.3260    34.3350 H     2 MGO  0.0000  
 43 C1      21.3320   113.0540    42.1910 C.3   3 MGO  0.0000  
 44 O1      22.0130   111.8050    42.5090 O.3   3 MGO  0.0000  
 45 C2      20.0410   112.7460    41.4020 C.3   3 MGO  0.0000  
 46 O2      19.2140   111.9550    42.2320 O.3   3 MGO  0.0000  
 47 C3      20.3890   112.0130    40.0940 C.3   3 MGO  0.0000  
 48 O3      19.2090   111.8180    39.3410 O.3   3 MGO  0.0000  
 49 C4      21.3840   112.8410    39.2610 C.3   3 MGO  0.0000  
 50 C5      22.6400   113.1820    40.0880 C.3   3 MGO  0.0000  
 51 O5      22.2080   113.8210    41.3240 O.3   3 MGO  0.0000  
 52 C6      23.6000   114.1590    39.3930 C.3   3 MGO  0.0000  
 53 O6      22.9590   115.3620    39.0240 O.3   3 MGO  0.0000  
 54 H1      21.0990   113.6130    43.0880 H     3 MGO  0.0000  
 55 H2      19.5130   113.6690    41.1590 H     3 MGO  0.0000  
 56 H2      19.6990   111.1660    42.4820 H     3 MGO  0.0000  
 57 H3      20.8300   111.0420    40.3240 H     3 MGO  0.0000  
 58 H3      18.8290   112.6770    39.1430 H     3 MGO  0.0000  
 59 H4      20.8970   113.7640    38.9440 H     3 MGO  0.0000  
 60 H5      23.1880   112.2610    40.2930 H     3 MGO  0.0000  
 61 H61     24.4220   114.3900    40.0700 H     3 MGO  0.0000  
 62 H62     24.0130   113.6900    38.5040 H     3 MGO  0.0000  
 63 H6      22.6510   115.8010    39.8200 H     3 MGO  0.0000  
 64 C1      23.9280   110.0510    45.8500 C.3   4 MGO  0.0000  
 65 O1      24.8620   109.3570    44.9730 O.3   4 MGO  0.0000  
 66 C2      22.4830   109.6080    45.5310 C.3   4 MGO  0.0000  
 67 O2      22.4190   108.2050    45.6990 O.3   4 MGO  0.0000  
 68 C3      22.1060   110.0120    44.0950 C.3   4 MGO  0.0000  
 69 O3      20.7580   109.6650    43.8480 O.3   4 MGO  0.0000  
 70 C4      22.2770   111.5280    43.9080 C.3   4 MGO  0.0000  
 71 C5      23.7340   111.9240    44.2230 C.3   4 MGO  0.0000  
 72 O5      24.0420   111.4740    45.5770 O.3   4 MGO  0.0000  
 73 C6      24.0190   113.4320    44.1870 C.3   4 MGO  0.0000  
 74 O6      23.1540   114.1530    45.0400 O.3   4 MGO  0.0000  
 75 H1      24.1500   109.8430    46.8880 H     4 MGO  0.0000  
 76 H2      21.7800   110.0760    46.2220 H     4 MGO  0.0000  
 77 H2      23.0680   107.7990    45.1190 H     4 MGO  0.0000  
 78 H3      22.7450   109.4840    43.3860 H     4 MGO  0.0000  
 79 H3      20.2030   110.1370    44.4740 H     4 MGO  0.0000  
 80 H4      21.5910   112.0500    44.5770 H     4 MGO  0.0000  
 81 H5      24.3820   111.4430    43.4910 H     4 MGO  0.0000  
 82 H61     25.0490   113.6050    44.5000 H     4 MGO  0.0000  
 83 H62     23.9090   113.8010    43.1690 H     4 MGO  0.0000  
 84 H6      23.3080   113.8670    45.9430 H     4 MGO  0.0000  
 85 C1      28.6730   107.5530    45.1940 C.3   5 MGO  0.0000  
 86 O1      28.4390   106.9740    43.8790 O.3   5 MGO  0.0000  
 87 C2      27.5970   107.0490    46.1810 C.3   5 MGO  0.0000  
 88 O2      27.7010   105.6410    46.2420 O.3   5 MGO  0.0000  
 89 C3      26.1990   107.4890    45.7100 C.3   5 MGO  0.0000  
 90 O3      25.2400   107.0920    46.6710 O.3   5 MGO  0.0000  
 91 C4      26.1510   109.0190    45.5490 C.3   5 MGO  0.0000  
 92 C5      27.2490   109.4900    44.5770 C.3   5 MGO  0.0000  
 93 O5      28.5240   108.9930    45.0720 O.3   5 MGO  0.0000  
 94 C6      27.3780   111.0160    44.4710 C.3   5 MGO  0.0000  
 95 O6      27.6080   111.6190    45.7280 O.3   5 MGO  0.0000  
 96 H1      29.6590   107.3020    45.5620 H     5 MGO  0.0000  
 97 H2      27.7760   107.4550    47.1780 H     5 MGO  0.0000  
 98 H2      27.5900   105.2880    45.3560 H     5 MGO  0.0000  
 99 H3      25.9650   107.0160    44.7560 H     5 MGO  0.0000  
100 H3      25.4540   107.5130    47.5070 H     5 MGO  0.0000  
101 H4      26.3080   109.4840    46.5240 H     5 MGO  0.0000  
102 H5      27.0320   109.0990    43.5820 H     5 MGO  0.0000  
103 H61     28.2080   111.2570    43.8070 H     5 MGO  0.0000  
104 H62     26.4680   111.4280    44.0420 H     5 MGO  0.0000  
105 H6      28.4450   111.2970    46.0710 H     5 MGO  0.0000  
106 C1      30.6200   105.2940    40.6880 C.3   6 MGO  0.0000  
107 H1      31.4057   104.8048    40.1123 H     6 MGO  0.0000  
108 O1      29.5480   105.7280    39.7980 O.3   6 MGO  0.0000  
109 C2      30.0510   104.3220    41.7440 C.3   6 MGO  0.0000  
110 H2      30.8283   103.9875    42.4311 H     6 MGO  0.0000  
111 O2      29.5160   103.2100    41.0540 O.3   6 MGO  0.0000  
112 H2      28.8369   103.5367    40.4593 H     6 MGO  0.0000  
113 C3      28.9750   105.0330    42.5820 C.3   6 MGO  0.0000  
114 H3      28.1524   105.3205    41.9272 H     6 MGO  0.0000  
115 C4      29.5540   106.2970    43.2430 C.3   6 MGO  0.0000  
116 H4      30.3378   106.0358    43.9540 H     6 MGO  0.0000  
117 C5      30.1560   107.2330    42.1720 C.3   6 MGO  0.0000  
118 H5      29.3060   107.6110    41.6039 H     6 MGO  0.0000  
119 O5      31.1170   106.4630    41.3890 O.3   6 MGO  0.0000  
120 C6      30.9382   108.4313    42.7291 C.3   6 MGO  0.0000  
121 H61     30.3961   108.9773    43.4995 H     6 MGO  0.0000  
122 H62     31.1317   109.1312    41.9078 H     6 MGO  0.0000  
123 N6      32.2635   108.0384    43.2003 N.am  6 MGO  0.0000  
124 H6      32.8224   107.5372    42.5135 H     6 MGO  0.0000  
125 O31     28.5160   104.1550    43.5900 O.3   6 MGO  0.0000  
126 H31     29.2681   103.9278    44.1416 H     6 MGO  0.0000  
127 C61     32.7536   108.3140    44.4416 C.2   6 MGO  0.0000  
128 C61     34.1871   107.8895    44.6560 C.3   6 MGO  0.0000  
129 H611    34.8263   108.5778    44.0907 H     6 MGO  0.0000  
130 H612    34.3285   106.8835    44.2423 H     6 MGO  0.0000  
131 C613    34.5244   107.8958    46.1539 C.3   6 MGO  0.0000  
132 H613    33.7926   107.2681    46.6790 H     6 MGO  0.0000  
133 N613    34.3342   109.2575    46.7341 N.4   6 MGO  0.0000  
134 H611    34.9670   109.9557    46.3296 H     6 MGO  0.0000  
135 H612    34.4821   109.2517    47.7500 H     6 MGO  0.0000  
136 H613    33.3572   109.5625    46.5552 H     6 MGO  0.0000  
137 O       32.1366   108.9069    45.3243 O.2   6 MGO  0.0000 
138 C       38.4876   106.4855    47.1144 C.ar  6 MGO  0.0000 
139 O       39.7546   106.0743    47.3955 O.3   6 MGO  0.0000 
140 H       39.7255   105.3647    48.0590 H     6 MGO  0.0000 
141 C       38.3306   107.4761    46.1543 C.ar  6 MGO  0.0000 
142 H       39.2078   107.8874    45.6591 H     6 MGO  0.0000 
143 C       37.0525   107.9341    45.8274 C.ar  6 MGO  0.0000 
144 H       36.9747   108.7091    45.0679 H     6 MGO  0.0000 
145 C       35.9187   107.3975    46.4617 C.ar  6 MGO  0.0000 
146 C       36.1035   106.3997    47.4362 C.ar  6 MGO  0.0000 
147 H       35.2563   105.9559    47.9582 H     6 MGO  0.0000 
148 C       37.3843   105.9424    47.7594 C.ar  6 MGO  0.0000 
149 H       37.5022   105.1665    48.5112 H     6 MGO  0.0000 
150 C1      29.0160   106.5180    35.6630 C.3   7 MGO  0.0000  
151 O1      27.8520   107.3490    35.9350 O.3   7 MGO  0.0000  
152 C2      28.7580   105.0790    36.1670 C.3   7 MGO  0.0000  
153 O2      27.5970   104.6010    35.5160 O.3   7 MGO  0.0000  
154 C3      28.5810   105.0710    37.6950 C.3   7 MGO  0.0000  
155 O3      28.4210   103.7380    38.1400 O.3   7 MGO  0.0000  
156 C4      29.8180   105.6850    38.3710 C.3   7 MGO  0.0000  
157 C5      30.0130   107.1260    37.8600 C.3   7 MGO  0.0000  
158 O5      30.1370   107.0710    36.4070 O.3   7 MGO  0.0000  
159 C6      31.2680   107.8360    38.3840 C.3   7 MGO  0.0000  
160 O6      32.4390   107.0790    38.1560 O.3   7 MGO  0.0000  
161 H1      29.2340   106.4970    34.6030 H     7 MGO  0.0000  
162 H2      29.5960   104.4310    35.9080 H     7 MGO  0.0000  
163 H2      26.8700   105.1970    35.7130 H     7 MGO  0.0000  
164 H3      27.6950   105.6460    37.9670 H     7 MGO  0.0000  
165 H3      29.1990   103.2370    37.8860 H     7 MGO  0.0000  
166 H4      30.6930   105.0810    38.1260 H     7 MGO  0.0000  
167 H5      29.1460   107.7160    38.1590 H     7 MGO  0.0000  
168 H61     31.3670   108.7990    37.8820 H     7 MGO  0.0000  
169 H62     31.1620   108.0230    39.4500 H     7 MGO  0.0000  
170 H6      32.5570   106.9780    37.2090 H     7 MGO  0.0000  
@<TRIPOS>BOND
  1   1   2  1   
  2   1   3  1   
  3   1   9  1   
  4   1  12  1   
  5   2  28  1   INTERRES
  6   3   4  1   
  7   3   5  1   
  8   3  13  1   
  9   4  14  1   
 10   5   6  1   
 11   5   7  1   
 12   5  15  1   
 13   6  16  1   
 14   7   8  1   
 15   7  17  1   
 16   7 151  1   INTERRES
 17   8   9  1   
 18   8  10  1   
 19   8  18  1   
 20  10  11  1   
 21  10  19  1   
 22  10  20  1   
 23  11  21  1   
 24  22  23  1   
 25  22  24  1   
 26  22  30  1   
 27  22  33  1   
 28  23  49  1   INTERRES
 29  24  25  1   
 30  24  26  1   
 31  24  34  1   
 32  25  35  1   
 33  26  27  1   
 34  26  28  1   
 35  26  36  1   
 36  27  37  1   
 37  28  29  1   
 38  28  38  1   
 39  29  30  1   
 40  29  31  1   
 41  29  39  1   
 42  31  32  1   
 43  31  40  1   
 44  31  41  1   
 45  32  42  1   
 46  43  44  1   
 47  43  45  1   
 48  43  51  1   
 49  43  54  1   
 50  44  70  1   INTERRES
 51  45  46  1   
 52  45  47  1   
 53  45  55  1   
 54  46  56  1   
 55  47  48  1   
 56  47  49  1   
 57  47  57  1   
 58  48  58  1   
 59  49  50  1   
 60  49  59  1   
 61  50  51  1   
 62  50  52  1   
 63  50  60  1   
 64  52  53  1   
 65  52  61  1   
 66  52  62  1   
 67  53  63  1   
 68  64  65  1   
 69  64  66  1   
 70  64  72  1   
 71  64  75  1   
 72  65  91  1   INTERRES
 73  66  67  1   
 74  66  68  1   
 75  66  76  1   
 76  67  77  1   
 77  68  69  1   
 78  68  70  1   
 79  68  78  1   
 80  69  79  1   
 81  70  71  1   
 82  70  80  1   
 83  71  72  1   
 84  71  73  1   
 85  71  81  1   
 86  73  74  1   
 87  73  82  1   
 88  73  83  1   
 89  74  84  1   
 90  85  86  1   
 91  85  87  1   
 92  85  93  1   
 93  85  96  1   
 94  86 115  1   INTERRES
 95  87  88  1   
 96  87  89  1   
 97  87  97  1   
 98  88  98  1   
 99  89  90  1   
100  89  91  1   
101  89  99  1   
102  90 100  1   
103  91  92  1   
104  91 101  1   
105  92  93  1   
106  92  94  1   
107  92 102  1   
108  94  95  1   
109  94 103  1   
110  94 104  1   
111  95 105  1   
112 106 107  1   
113 106 108  1   
114 106 109  1   
115 106 119  1   
116 108 156  1   INTERRES
117 109 110  1   
118 109 111  1   
119 109 113  1   
120 111 112  1   
121 113 114  1   
122 113 115  1   
123 113 125  1   
124 115 116  1   
125 115 117  1   
126 117 118  1   
127 117 119  1   
128 117 120  1   
129 120 121  1   
130 120 122  1   
131 120 123  1   
132 123 124  1   
133 123 127  am  
134 125 126  1   
135 127 128  1   
136 127 137  2   
137 128 129  1   
138 128 130  1   
139 128 131  1   
140 131 132  1   
141 131 133  1   
142 131 145  1   
143 133 134  1   
144 133 135  1   
145 133 136  1   
146 138 139  1   BACKBONE
147 138 141  ar  BACKBONE
148 138 148  ar  BACKBONE
149 139 140  1   BACKBONE
150 141 142  1   BACKBONE
151 141 143  ar  BACKBONE
152 143 144  1   BACKBONE
153 143 145  ar  BACKBONE
154 145 146  ar  BACKBONE
155 146 147  1   BACKBONE
156 146 148  ar  BACKBONE
157 148 149  1   BACKBONE
158 150 151  1   
159 150 152  1   
160 150 158  1   
161 150 161  1   
162 152 153  1   
163 152 154  1   
164 152 162  1   
165 153 163  1   
166 154 155  1   
167 154 156  1   
168 154 164  1   
169 155 165  1   
170 156 157  1   
171 156 166  1   
172 157 158  1   
173 157 159  1   
174 157 167  1   
175 159 160  1   
176 159 168  1   
177 159 169  1   
178 160 170  1   
@<TRIPOS>SUBSTRUCTURE
  1 MGO   7 GROUP 4 **** **** 2
  2 MGO  28 GROUP 4 **** **** 2
  3 MGO  49 GROUP 4 **** **** 2
  4 MGO  70 GROUP 4 **** **** 2
  5 MGO  91 GROUP 4 **** **** 2
  6 MGO 128 GROUP 4 **** **** 2
  7 MGO 156 GROUP 4 **** **** 2

# MOE 2019.01 (io_trps.svl 2018.10)
