@<TRIPOS>MOLECULE
*****
  192   212     0     0     0
SMALL
NO_CHARGES

@<TRIPOS>ATOM
      1 H1          3.8980   -2.3480   -0.4890 H         1 UNK1        0.0000
      2 C1          3.4060   -2.0940    0.4480 C.ar      1 UNK1        0.0000
      3 C2          2.1460   -1.4440    2.8780 C.ar      1 UNK1        0.0000
      4 C3          2.4800   -2.9550    1.0370 C.ar      1 UNK1        0.0000
      5 C4          3.6780   -0.8930    1.1060 C.ar      1 UNK1        0.0000
      6 C5          3.0660   -0.5430    2.3240 C.ar      1 UNK1        0.0000
      7 C6          1.8490   -2.6660    2.2640 C.ar      1 UNK1        0.0000
      8 H2          1.6260   -1.1810    3.8040 H         1 UNK1        0.0000
      9 C7          0.8490   -3.6540    2.8230 C.3       1 UNK1        0.0000
     10 H3          1.1380   -4.6770    2.4270 H         1 UNK1        0.0000
     11 C8          3.4120    0.7780    2.9820 C.3       1 UNK1        0.0000
     12 H4          4.4670    1.0470    2.6620 H         1 UNK1        0.0000
     13 C9         -0.5050   -3.2970    2.2410 C.ar      1 UNK1        0.0000
     14 C10        -2.9430   -2.6120    1.0560 C.ar      1 UNK1        0.0000
     15 C11        -0.8960   -3.8410    1.0050 C.ar      1 UNK1        0.0000
     16 C12        -1.3760   -2.3890    2.8600 C.ar      1 UNK1        0.0000
     17 C13        -2.5990   -2.0200    2.2880 C.ar      1 UNK1        0.0000
     18 C14        -2.1160   -3.5290    0.4040 C.ar      1 UNK1        0.0000
     19 H5         -1.0820   -1.9480    3.8280 H         1 UNK1        0.0000
     20 H6         -2.4110   -3.9800   -0.5410 H         1 UNK1        0.0000
     21 C15         2.4910    1.8480    2.4370 C.ar      1 UNK1        0.0000
     22 C16         0.7890    3.7140    1.2290 C.ar      1 UNK1        0.0000
     23 C17         1.2650    2.1850    3.0270 C.ar      1 UNK1        0.0000
     24 C18         2.8410    2.4970    1.2360 C.ar      1 UNK1        0.0000
     25 C19         2.0160    3.4420    0.6240 C.ar      1 UNK1        0.0000
     26 C20         0.3900    3.1070    2.4360 C.ar      1 UNK1        0.0000
     27 H7          0.9700    1.6890    3.9570 H         1 UNK1        0.0000
     28 H8          2.3150    3.9410   -0.2960 H         1 UNK1        0.0000
     29 C21        -0.9800    3.4350    2.9950 C.3       1 UNK1        0.0000
     30 H9         -1.2440    4.4800    2.6390 H         1 UNK1        0.0000
     31 C22        -3.5290   -1.0040    2.9210 C.3       1 UNK1        0.0000
     32 H10        -4.5830   -1.2780    2.6140 H         1 UNK1        0.0000
     33 C23        -3.2140    0.3600    2.3330 C.ar      1 UNK1        0.0000
     34 C24        -2.5920    2.8240    1.1560 C.ar      1 UNK1        0.0000
     35 C25        -3.8000    0.7640    1.1200 C.ar      1 UNK1        0.0000
     36 C26        -2.3170    1.2480    2.9470 C.ar      1 UNK1        0.0000
     37 C27        -1.9840    2.4830    2.3800 C.ar      1 UNK1        0.0000
     38 C28        -3.5120    1.9930    0.5190 C.ar      1 UNK1        0.0000
     39 H11        -1.8650    0.9600    3.9090 H         1 UNK1        0.0000
     40 H12        -3.9890    2.2870   -0.4140 H         1 UNK1        0.0000
     41 C29         3.4040    0.6350    4.5120 C.3       1 UNK1        0.0000
     42 H13         2.3680    0.5150    4.8930 H         1 UNK1        0.0000
     43 C30         0.7870   -3.7620    4.3580 C.3       1 UNK1        0.0000
     44 H14         0.1060   -2.9730    4.7690 H         1 UNK1        0.0000
     45 O1         -2.2720    4.0210    0.4970 O.3       1 UNK1        0.0000
     46 O2         -0.0540    4.6040    0.5510 O.3       1 UNK1        0.0000
     47 O3         -4.6920   -0.0630    0.4240 O.3       1 UNK1        0.0000
     48 O4          2.1720   -4.1200    0.3200 O.3       1 UNK1        0.0000
     49 O5         -0.0490   -4.7010    0.2890 O.3       1 UNK1        0.0000
     50 O6         -4.1330   -2.2820    0.3920 O.3       1 UNK1        0.0000
     51 C31         0.9560   -3.9760   -0.4480 C.3       1 UNK1        0.0000
     52 H15         0.6780   -2.9010   -0.5570 H         1 UNK1        0.0000
     53 C32        -4.0060   -1.0590   -0.3630 C.3       1 UNK1        0.0000
     54 H16        -2.9350   -0.7870   -0.5100 H         1 UNK1        0.0000
     55 O7          4.5780   -0.0290    0.4680 O.3       1 UNK1        0.0000
     56 C33         3.9050    1.0170   -0.2630 C.3       1 UNK1        0.0000
     57 H17         2.8340    0.7630   -0.4350 H         1 UNK1        0.0000
     58 O8          4.0340    2.1930    0.5660 O.3       1 UNK1        0.0000
     59 C34        -1.0420    3.9160   -0.2500 C.3       1 UNK1        0.0000
     60 H18        -0.7570    2.8500   -0.4080 H         1 UNK1        0.0000
     61 C35         4.6120    1.2410   -1.5810 C.ar      1 UNK1        0.0000
     62 C36         5.5650    1.5650   -4.2110 C.ar      1 UNK1        0.0000
     63 C37         4.5570    2.5060   -2.1730 C.ar      1 UNK1        0.0000
     64 C38         5.1390    0.1360   -2.2560 C.ar      1 UNK1        0.0000
     65 C39         5.6040    0.3230   -3.5650 C.ar      1 UNK1        0.0000
     66 C40         5.0370    2.6400   -3.4840 C.ar      1 UNK1        0.0000
     67 H19         4.1820    3.3600   -1.6120 H         1 UNK1        0.0000
     68 H20         5.2090   -0.8290   -1.7560 H         1 UNK1        0.0000
     69 C41        -1.1990    4.6230   -1.5760 C.ar      1 UNK1        0.0000
     70 C42        -1.3980    5.5700   -4.2210 C.ar      1 UNK1        0.0000
     71 C43        -0.0730    5.1830   -2.1850 C.ar      1 UNK1        0.0000
     72 C44        -2.4260    4.5350   -2.2410 C.ar      1 UNK1        0.0000
     73 C45        -2.4980    5.0100   -3.5580 C.ar      1 UNK1        0.0000
     74 C46        -0.1980    5.6450   -3.5030 C.ar      1 UNK1        0.0000
     75 H21         0.8590    5.2790   -1.6310 H         1 UNK1        0.0000
     76 H22        -3.2990    4.1330   -1.7280 H         1 UNK1        0.0000
     77 C47        -4.6960   -1.2080   -1.7000 C.ar      1 UNK1        0.0000
     78 C48        -5.6110   -1.3850   -4.3580 C.ar      1 UNK1        0.0000
     79 C49        -5.2210   -0.0690   -2.3170 C.ar      1 UNK1        0.0000
     80 C50        -4.6250   -2.4360   -2.3640 C.ar      1 UNK1        0.0000
     81 C51        -5.0860   -2.4970   -3.6870 C.ar      1 UNK1        0.0000
     82 C52        -5.6670   -0.1830   -3.6410 C.ar      1 UNK1        0.0000
     83 H23        -5.3050    0.8640   -1.7620 H         1 UNK1        0.0000
     84 H24        -4.2520   -3.3190   -1.8470 H         1 UNK1        0.0000
     85 C53         1.1410   -4.6090   -1.8090 C.ar      1 UNK1        0.0000
     86 C54         1.3800   -5.4010   -4.5010 C.ar      1 UNK1        0.0000
     87 C55         2.3800   -4.4920   -2.4450 C.ar      1 UNK1        0.0000
     88 C56         0.0210   -5.1220   -2.4690 C.ar      1 UNK1        0.0000
     89 C57         0.1660   -5.5070   -3.8100 C.ar      1 UNK1        0.0000
     90 C58         2.4710   -4.8900   -3.7860 C.ar      1 UNK1        0.0000
     91 H25         3.2460   -4.1290   -1.8950 H         1 UNK1        0.0000
     92 H26        -0.9210   -5.2430   -1.9370 H         1 UNK1        0.0000
     93 O9          6.1270   -0.6920   -4.3520 O.3       1 UNK1        0.0000
     94 O10         0.8430    6.2050   -4.2280 O.3       1 UNK1        0.0000
     95 O11        -3.6420    4.9530   -4.3400 O.3       1 UNK1        0.0000
     96 O12         3.6300   -4.8000   -4.5430 O.3       1 UNK1        0.0000
     97 O13        -6.1920    0.8730   -4.3730 O.3       1 UNK1        0.0000
     98 O14        -5.0620   -3.6470   -4.4620 O.3       1 UNK1        0.0000
     99 O15        -0.8690   -6.0080   -4.5860 O.3       1 UNK1        0.0000
    100 O16         5.0340    3.8350   -4.1890 O.3       1 UNK1        0.0000
    101 C59        -4.7340    4.2010   -3.8720 C.ar      1 UNK1        0.0000
    102 C60        -7.0490    2.7950   -3.2060 C.ar      1 UNK1        0.0000
    103 C61        -4.8160    2.8510   -4.2280 C.ar      1 UNK1        0.0000
    104 C62        -5.7560    4.8670   -3.1860 C.ar      1 UNK1        0.0000
    105 C63        -6.9130    4.1480   -2.8620 C.ar      1 UNK1        0.0000
    106 C64        -5.9960    2.1780   -3.8900 C.ar      1 UNK1        0.0000
    107 H27        -5.6570    5.9270   -2.9220 H         1 UNK1        0.0000
    108 H28        -7.9590    2.2370   -2.9590 H         1 UNK1        0.0000
    109 C65        -4.2580   -4.7190   -4.0390 C.ar      1 UNK1        0.0000
    110 C66        -2.7570   -7.0010   -3.4700 C.ar      1 UNK1        0.0000
    111 C67        -2.9030   -4.7260   -4.3870 C.ar      1 UNK1        0.0000
    112 C68        -4.8840   -5.8000   -3.4070 C.ar      1 UNK1        0.0000
    113 C69        -4.1170   -6.9390   -3.1310 C.ar      1 UNK1        0.0000
    114 C70        -2.1830   -5.8920   -4.1000 C.ar      1 UNK1        0.0000
    115 H29        -5.9480   -5.7590   -3.1480 H         1 UNK1        0.0000
    116 H30        -2.1630   -7.8980   -3.2620 H         1 UNK1        0.0000
    117 C71         4.7060   -4.0580   -4.0260 C.ar      1 UNK1        0.0000
    118 C72         6.9940   -2.6560   -3.2630 C.ar      1 UNK1        0.0000
    119 C73         5.7280   -4.7430   -3.3580 C.ar      1 UNK1        0.0000
    120 C74         4.7760   -2.6910   -4.3180 C.ar      1 UNK1        0.0000
    121 C75         5.9430   -2.0210   -3.9320 C.ar      1 UNK1        0.0000
    122 C76         6.8710   -4.0250   -2.9840 C.ar      1 UNK1        0.0000
    123 H31         5.6390   -5.8140   -3.1450 H         1 UNK1        0.0000
    124 H32         7.8950   -2.1000   -2.9770 H         1 UNK1        0.0000
    125 C77         4.2260    4.8840   -3.7190 C.ar      1 UNK1        0.0000
    126 C78         2.7230    7.1360   -3.0500 C.ar      1 UNK1        0.0000
    127 C79         2.8730    4.9090   -4.0750 C.ar      1 UNK1        0.0000
    128 C80         4.8480    5.9320   -3.0310 C.ar      1 UNK1        0.0000
    129 C81         4.0800    7.0570   -2.7050 C.ar      1 UNK1        0.0000
    130 C82         2.1520    6.0590   -3.7370 C.ar      1 UNK1        0.0000
    131 H33         5.9110    5.8780   -2.7700 H         1 UNK1        0.0000
    132 H34         2.1270    8.0220   -2.8030 H         1 UNK1        0.0000
    133 H35         0.2760   -4.7150    4.6110 H         1 UNK1        0.0000
    134 C83        -3.4810   -0.9530    4.4600 C.3       1 UNK1        0.0000
    135 C84        -0.9930    3.4550    4.5340 C.3       1 UNK1        0.0000
    136 H36         3.9300   -0.3130    4.7830 H         1 UNK1        0.0000
    137 H37        -0.7500    2.4490    4.9380 H         1 UNK1        0.0000
    138 H38        -0.1780    4.1210    4.8870 H         1 UNK1        0.0000
    139 H39        -4.2860   -0.2750    4.8180 H         1 UNK1        0.0000
    140 H40        -2.5420   -0.4460    4.7960 H         1 UNK1        0.0000
    141 C85         7.9980   -4.6940   -2.2780 C.2       1 UNK1        0.0000
    142 C86        -4.7210   -8.1280   -2.4680 C.2       1 UNK1        0.0000
    143 C87        -8.0420    4.7980   -2.1410 C.2       1 UNK1        0.0000
    144 C88         4.6810    8.2100   -1.9800 C.2       1 UNK1        0.0000
    145 O17         9.0450   -4.2210   -1.9050 O.2       1 UNK1        0.0000
    146 O18        -4.2060   -9.1840   -2.1900 O.2       1 UNK1        0.0000
    147 O19        -9.1020    4.3240   -1.8090 O.2       1 UNK1        0.0000
    148 O20         4.1580    9.2430   -1.6350 O.2       1 UNK1        0.0000
    149 C89        -3.6050   -2.3110    5.1550 C.3       1 UNK1        0.0000
    150 H41        -4.6370   -2.4620    5.5420 H         1 UNK1        0.0000
    151 H42        -3.4390   -3.1520    4.4450 H         1 UNK1        0.0000
    152 C90         4.0820    1.8060    5.2220 C.3       1 UNK1        0.0000
    153 H43         5.1040    1.9870    4.8130 H         1 UNK1        0.0000
    154 H44         3.5400    2.7620    5.0390 H         1 UNK1        0.0000
    155 C91        -2.3280    3.9430    5.1050 C.3       1 UNK1        0.0000
    156 H45        -2.9920    4.3470    4.3040 H         1 UNK1        0.0000
    157 H46        -2.1750    4.8090    5.7880 H         1 UNK1        0.0000
    158 C92         2.1340   -3.7000    5.0820 C.3       1 UNK1        0.0000
    159 H47         2.9920   -3.6840    4.3720 H         1 UNK1        0.0000
    160 H48         2.2980   -4.6230    5.6850 H         1 UNK1        0.0000
    161 C93         4.1830    1.5300    6.6910 C.2       1 UNK1        0.0000
    162 C94        -3.0640    2.8560    5.8290 C.2       1 UNK1        0.0000
    163 C95         2.1970   -2.5140    6.0030 C.2       1 UNK1        0.0000
    164 C96        -2.6360   -2.4470    6.2990 C.2       1 UNK1        0.0000
    165 O21        -2.9050    1.6560    5.8220 O.2       1 UNK1        0.0000
    166 O22        -2.8310   -2.8610    7.4150 O.2       1 UNK1        0.0000
    167 O23         4.0560    0.4900    7.3050 O.2       1 UNK1        0.0000
    168 O24         1.2880   -1.9230    6.5550 O.2       1 UNK1        0.0000
    169 H49        -5.9590   -1.4520   -5.3880 H         1 UNK1        0.0000
    170 H50        -1.4730    5.9290   -5.2470 H         1 UNK1        0.0000
    171 H51         5.9270    1.6900   -5.2310 H         1 UNK1        0.0000
    172 H52         1.4700   -5.6990   -5.5450 H         1 UNK1        0.0000
    173 O25        -7.7530    6.1110   -1.8530 O.3       1 UNK1        0.0000
    174 H53        -8.5000    6.5660   -1.3710 H         1 UNK1        0.0000
    175 O26        -6.0440   -7.9050   -2.1650 O.3       1 UNK1        0.0000
    176 H54        -6.4670   -8.6910   -1.7190 H         1 UNK1        0.0000
    177 O27         7.7260   -6.0240   -2.0600 O.3       1 UNK1        0.0000
    178 H55         8.4710   -6.4910   -1.5870 H         1 UNK1        0.0000
    179 O28         6.0090    7.9840   -1.7040 O.3       1 UNK1        0.0000
    180 H56         6.4300    8.7490   -1.2200 H         1 UNK1        0.0000
    181 O29        -1.3720   -2.0470    5.9260 O.3       1 UNK1        0.0000
    182 H57        -0.6860   -2.0860    6.6700 H         1 UNK1        0.0000
    183 O30        -4.0640    3.4040    6.5950 O.3       1 UNK1        0.0000
    184 H58        -4.5900    2.7220    7.0960 H         1 UNK1        0.0000
    185 O31         4.4710    2.6810    7.3740 O.3       1 UNK1        0.0000
    186 H59         4.5630    2.5380    8.3580 H         1 UNK1        0.0000
    187 O32         3.4800   -2.0920    6.1710 O.3       1 UNK1        0.0000
    188 H60         3.5700   -1.2970    6.8100 H         1 UNK1        0.0000
    189 H61         3.9750   -2.1800   -4.8530 H         1 UNK1        0.0000
    190 H62         2.4120    4.0870   -4.6230 H         1 UNK1        0.0000
    191 H63        -4.0130    2.3550   -4.7750 H         1 UNK1        0.0000
    192 H64        -2.4390   -3.8790   -4.8910 H         1 UNK1        0.0000
@<TRIPOS>BOND
     1    1    2 1
     2    2    5 ar
     3    2    4 ar
     4    3    6 ar
     5    3    7 ar
     6    3    8 1
     7    4    7 ar
     8    4   48 1
     9    5    6 ar
    10    5   55 1
    11    6   11 1
    12    7    9 1
    13    9   10 1
    14    9   13 1
    15    9   43 1
    16   11   12 1
    17   11   21 1
    18   11   41 1
    19   13   16 ar
    20   13   15 ar
    21   14   17 ar
    22   14   18 ar
    23   14   50 1
    24   15   18 ar
    25   15   49 1
    26   16   17 ar
    27   16   19 1
    28   17   31 1
    29   18   20 1
    30   21   24 ar
    31   21   23 ar
    32   22   25 ar
    33   22   26 ar
    34   22   46 1
    35   23   26 ar
    36   23   27 1
    37   24   25 ar
    38   24   58 1
    39   25   28 1
    40   26   29 1
    41   29   30 1
    42   29   37 1
    43   29  135 1
    44   31   32 1
    45   31   33 1
    46   31  134 1
    47   33   36 ar
    48   33   35 ar
    49   34   37 ar
    50   34   38 ar
    51   34   45 1
    52   35   38 ar
    53   35   47 1
    54   36   37 ar
    55   36   39 1
    56   38   40 1
    57   41  136 1
    58   41   42 1
    59   41  152 1
    60   43  133 1
    61   43   44 1
    62   43  158 1
    63   45   59 1
    64   46   59 1
    65   47   53 1
    66   48   51 1
    67   49   51 1
    68   50   53 1
    69   51   52 1
    70   51   85 1
    71   53   54 1
    72   53   77 1
    73   55   56 1
    74   56   57 1
    75   56   58 1
    76   56   61 1
    77   59   60 1
    78   59   69 1
    79   61   64 ar
    80   61   63 ar
    81   62   65 ar
    82   62   66 ar
    83   62  171 1
    84   63   66 ar
    85   63   67 1
    86   64   65 ar
    87   64   68 1
    88   65   93 1
    89   66  100 1
    90   69   72 ar
    91   69   71 ar
    92   70   73 ar
    93   70   74 ar
    94   70  170 1
    95   71   74 ar
    96   71   75 1
    97   72   73 ar
    98   72   76 1
    99   73   95 1
   100   74   94 1
   101   77   80 ar
   102   77   79 ar
   103   78   81 ar
   104   78   82 ar
   105   78  169 1
   106   79   82 ar
   107   79   83 1
   108   80   81 ar
   109   80   84 1
   110   81   98 1
   111   82   97 1
   112   85   88 ar
   113   85   87 ar
   114   86   89 ar
   115   86   90 ar
   116   86  172 1
   117   87   90 ar
   118   87   91 1
   119   88   89 ar
   120   88   92 1
   121   89   99 1
   122   90   96 1
   123   93  121 1
   124   94  130 1
   125   95  101 1
   126   96  117 1
   127   97  106 1
   128   98  109 1
   129   99  114 1
   130  100  125 1
   131  101  104 ar
   132  101  103 ar
   133  102  105 ar
   134  102  106 ar
   135  102  108 1
   136  103  106 ar
   137  103  191 1
   138  104  105 ar
   139  104  107 1
   140  105  143 1
   141  109  112 ar
   142  109  111 ar
   143  110  113 ar
   144  110  114 ar
   145  110  116 1
   146  111  114 ar
   147  111  192 1
   148  112  113 ar
   149  112  115 1
   150  113  142 1
   151  117  120 ar
   152  117  119 ar
   153  118  121 ar
   154  118  122 ar
   155  118  124 1
   156  119  122 ar
   157  119  123 1
   158  120  121 ar
   159  120  189 1
   160  122  141 1
   161  125  128 ar
   162  125  127 ar
   163  126  129 ar
   164  126  130 ar
   165  126  132 1
   166  127  130 ar
   167  127  190 1
   168  128  129 ar
   169  128  131 1
   170  129  144 1
   171  134  139 1
   172  134  140 1
   173  134  149 1
   174  135  137 1
   175  135  138 1
   176  135  155 1
   177  141  145 2
   178  141  177 1
   179  142  146 2
   180  142  175 1
   181  143  147 2
   182  143  173 1
   183  144  148 2
   184  144  179 1
   185  149  150 1
   186  149  151 1
   187  149  164 1
   188  152  153 1
   189  152  154 1
   190  152  161 1
   191  155  156 1
   192  155  157 1
   193  155  162 1
   194  158  159 1
   195  158  160 1
   196  158  163 1
   197  161  167 2
   198  161  185 1
   199  162  165 2
   200  162  183 1
   201  163  168 2
   202  163  187 1
   203  164  166 2
   204  164  181 1
   205  173  174 1
   206  175  176 1
   207  177  178 1
   208  179  180 1
   209  181  182 1
   210  183  184 1
   211  185  186 1
   212  187  188 1
