@<TRIPOS>MOLECULE
*****
   40    44     0     0     0
SMALL
NO_CHARGES

@<TRIPOS>ATOM
      1 C1          0.1731    1.6756   -1.5865 C.3       1 UNL1        0.0000
      2 C2          0.8368    1.9980    0.8141 C.3       1 UNL1        0.0000
      3 C3          2.1685    0.4632   -0.6618 C.3       1 UNL1        0.0000
      4 C4         -2.1685   -0.4631    0.6618 C.3       1 UNL1        0.0000
      5 C5         -0.8368   -1.9979   -0.8141 C.3       1 UNL1        0.0000
      6 C6         -0.1730   -1.6758    1.5864 C.3       1 UNL1        0.0000
      7 C7         -0.7358    0.5009   -1.1849 C.3       1 UNL1        0.0000
      8 C8         -0.0683    0.8250    1.2292 C.3       1 UNL1        0.0000
      9 C9          1.2709   -0.7184   -0.2549 C.3       1 UNL1        0.0000
     10 C10        -1.2709    0.7184    0.2550 C.3       1 UNL1        0.0000
     11 C11         0.0683   -0.8250   -1.2292 C.3       1 UNL1        0.0000
     12 C12         0.7358   -0.5010    1.1849 C.3       1 UNL1        0.0000
     13 C13         1.3550    1.7636   -0.6114 C.3       1 UNL1        0.0000
     14 C14        -1.3551   -1.7636    0.6115 C.3       1 UNL1        0.0000
     15 N1          2.2274    2.8992   -1.0049 N.4       1 UNL1        0.0000
     16 N2         -2.2276   -2.8992    1.0052 N.4       1 UNL1        0.0000
     17 H1          0.5288    1.5284   -2.6143 H         1 UNL1        0.0000
     18 H2         -0.4071    2.6072   -1.5771 H         1 UNL1        0.0000
     19 H3          0.2695    2.9359    0.8710 H         1 UNL1        0.0000
     20 H4          1.6721    2.0837    1.5208 H         1 UNL1        0.0000
     21 H5          3.0302    0.5188    0.0157 H         1 UNL1        0.0000
     22 H6          2.5635    0.2920   -1.6715 H         1 UNL1        0.0000
     23 H7         -2.5636   -0.2920    1.6714 H         1 UNL1        0.0000
     24 H8         -3.0300   -0.5186   -0.0158 H         1 UNL1        0.0000
     25 H9         -1.6720   -2.0837   -1.5209 H         1 UNL1        0.0000
     26 H10        -0.2697   -2.9359   -0.8707 H         1 UNL1        0.0000
     27 H11         0.4072   -2.6074    1.5768 H         1 UNL1        0.0000
     28 H12        -0.5287   -1.5287    2.6143 H         1 UNL1        0.0000
     29 H13        -1.5776    0.4453   -1.8864 H         1 UNL1        0.0000
     30 H14        -0.4340    1.0005    2.2488 H         1 UNL1        0.0000
     31 H15         1.8600   -1.6433   -0.2934 H         1 UNL1        0.0000
     32 H16        -1.8597    1.6434    0.2936 H         1 UNL1        0.0000
     33 H17         0.4342   -1.0007   -2.2487 H         1 UNL1        0.0000
     34 H18         1.5776   -0.4454    1.8865 H         1 UNL1        0.0000
     35 H19         3.1385    2.8386   -0.5391 H         1 UNL1        0.0000
     36 H20         1.7989    3.7945   -0.7482 H         1 UNL1        0.0000
     37 H21         2.3881    2.9028   -2.0173 H         1 UNL1        0.0000
     38 H22        -2.6328   -2.7436    1.9337 H         1 UNL1        0.0000
     39 H23        -1.6957   -3.7751    1.0336 H         1 UNL1        0.0000
     40 H24        -2.9973   -3.0166    0.3384 H         1 UNL1        0.0000
@<TRIPOS>BOND
     1    1    7 1
     2    1   13 1
     3    2    8 1
     4    2   13 1
     5    3    9 1
     6    3   13 1
     7    4   10 1
     8    4   14 1
     9    5   11 1
    10    5   14 1
    11    6   12 1
    12    6   14 1
    13    7   10 1
    14    7   11 1
    15    8   10 1
    16    8   12 1
    17    9   11 1
    18    9   12 1
    19   13   15 1
    20   14   16 1
    21    1   17 1
    22    1   18 1
    23    2   19 1
    24    2   20 1
    25    3   21 1
    26    3   22 1
    27    4   23 1
    28    4   24 1
    29    5   25 1
    30    5   26 1
    31    6   27 1
    32    6   28 1
    33    7   29 1
    34    8   30 1
    35    9   31 1
    36   10   32 1
    37   11   33 1
    38   12   34 1
    39   15   35 1
    40   15   36 1
    41   15   37 1
    42   16   38 1
    43   16   39 1
    44   16   40 1
