@<TRIPOS>MOLECULE
*****
   29    28     0     0     0
SMALL
NO_CHARGES

@<TRIPOS>ATOM
      1 C1         -0.0383   -0.9755    0.4974 C.3       1 UNL1        0.0000
      2 C2          0.7787   -1.9832   -0.3146 C.3       1 UNL1        0.0000
      3 C3          0.4930   -0.8565    1.9277 C.3       1 UNL1        0.0000
      4 C4          0.2297   -2.1298   -1.7345 C.3       1 UNL1        0.0000
      5 C5         -0.2823    0.1510    2.7810 C.3       1 UNL1        0.0000
      6 C6          1.0683   -3.1060   -2.5462 C.3       1 UNL1        0.0000
      7 C7          0.2693    0.2856    4.1933 C.3       1 UNL1        0.0000
      8 N1          0.5276   -3.1811   -3.9248 N.4       1 UNL1        0.0000
      9 N2         -0.5742    1.2418    4.9523 N.4       1 UNL1        0.0000
     10 H1         -1.0890   -1.2886    0.5204 H         1 UNL1        0.0000
     11 H2          0.0000   -0.0000    0.0000 H         1 UNL1        0.0000
     12 H3          1.8253   -1.6579   -0.3570 H         1 UNL1        0.0000
     13 H4          0.7631   -2.9586    0.1868 H         1 UNL1        0.0000
     14 H5          0.4311   -1.8372    2.4157 H         1 UNL1        0.0000
     15 H6          1.5544   -0.5806    1.9071 H         1 UNL1        0.0000
     16 H7         -0.8097   -2.4785   -1.6918 H         1 UNL1        0.0000
     17 H8          0.2191   -1.1497   -2.2273 H         1 UNL1        0.0000
     18 H9         -1.3288   -0.1760    2.8295 H         1 UNL1        0.0000
     19 H10        -0.2830    1.1290    2.2839 H         1 UNL1        0.0000
     20 H11         2.1093   -2.7804   -2.6309 H         1 UNL1        0.0000
     21 H12         1.0313   -4.1192   -2.1350 H         1 UNL1        0.0000
     22 H13         0.2393   -0.6630    4.7371 H         1 UNL1        0.0000
     23 H14         1.2849    0.6893    4.2091 H         1 UNL1        0.0000
     24 H15         1.1773   -3.6724   -4.5484 H         1 UNL1        0.0000
     25 H16         0.3704   -2.2428   -4.3091 H         1 UNL1        0.0000
     26 H17        -0.3669   -3.6831   -3.9421 H         1 UNL1        0.0000
     27 H18        -1.5663    1.1146    4.7266 H         1 UNL1        0.0000
     28 H19        -0.3207    2.2103    4.7293 H         1 UNL1        0.0000
     29 H20        -0.4599    1.1093    5.9628 H         1 UNL1        0.0000
@<TRIPOS>BOND
     1    1    2 1
     2    1    3 1
     3    2    4 1
     4    3    5 1
     5    4    6 1
     6    5    7 1
     7    6    8 1
     8    7    9 1
     9    1   10 1
    10    1   11 1
    11    2   12 1
    12    2   13 1
    13    3   14 1
    14    3   15 1
    15    4   16 1
    16    4   17 1
    17    5   18 1
    18    5   19 1
    19    6   20 1
    20    6   21 1
    21    7   22 1
    22    7   23 1
    23    8   24 1
    24    8   25 1
    25    8   26 1
    26    9   27 1
    27    9   28 1
    28    9   29 1
