@<TRIPOS>MOLECULE
*****
   38    40     0     0     0
SMALL
NO_CHARGES

@<TRIPOS>ATOM
      1 C1         -0.2432    1.7135   -0.8857 C.3       1 UNL1        0.0000
      2 C2         -1.8381    0.3724    0.5116 C.3       1 UNL1        0.0000
      3 C3          0.3160    1.1909    1.5035 C.3       1 UNL1        0.0000
      4 C4         -0.5660   -0.7327   -1.3493 C.3       1 UNL1        0.0000
      5 C5          1.5953    0.0885   -0.3539 C.3       1 UNL1        0.0000
      6 C6         -0.0051   -1.2569    1.0479 C.3       1 UNL1        0.0000
      7 C7         -1.2680    0.5648   -0.9054 C.3       1 UNL1        0.0000
      8 C8          0.8999    1.3885    0.0930 C.3       1 UNL1        0.0000
      9 C9         -0.7053    0.0390    1.4992 C.3       1 UNL1        0.0000
     10 C10         0.5702   -1.0585   -0.3649 C.3       1 UNL1        0.0000
     11 C11         1.8334   -2.1527   -2.2044 C.3       1 UNL1        0.0000
     12 C12         0.2532   -3.4810   -0.8204 C.3       1 UNL1        0.0000
     13 C13         2.3872   -2.6702    0.1623 C.3       1 UNL1        0.0000
     14 N1          1.2442   -2.3095   -0.7961 N.4       1 UNL1        0.0000
     15 H1          0.1606    1.8718   -1.8932 H         1 UNL1        0.0000
     16 H2         -0.7349    2.6480   -0.5888 H         1 UNL1        0.0000
     17 H3         -2.3574    1.2839    0.8325 H         1 UNL1        0.0000
     18 H4         -2.5817   -0.4340    0.5095 H         1 UNL1        0.0000
     19 H5          1.1221    0.9736    2.2151 H         1 UNL1        0.0000
     20 H6         -0.1663    2.1165    1.8412 H         1 UNL1        0.0000
     21 H7         -1.2954   -1.5520   -1.3837 H         1 UNL1        0.0000
     22 H8         -0.1731   -0.6083   -2.3666 H         1 UNL1        0.0000
     23 H9          2.0303    0.2286   -1.3519 H         1 UNL1        0.0000
     24 H10         2.4235   -0.1390    0.3295 H         1 UNL1        0.0000
     25 H11         0.7921   -1.5106    1.7585 H         1 UNL1        0.0000
     26 H12        -0.7237   -2.0865    1.0604 H         1 UNL1        0.0000
     27 H13        -2.0792    0.8037   -1.6019 H         1 UNL1        0.0000
     28 H14         1.6238    2.2108    0.1034 H         1 UNL1        0.0000
     29 H15        -1.1178   -0.0942    2.5054 H         1 UNL1        0.0000
     30 H16         2.3147   -3.0952   -2.4718 H         1 UNL1        0.0000
     31 H17         1.0124   -1.9238   -2.8865 H         1 UNL1        0.0000
     32 H18         2.5580   -1.3368   -2.1745 H         1 UNL1        0.0000
     33 H19         0.7966   -4.3713   -1.1421 H         1 UNL1        0.0000
     34 H20        -0.1416   -3.6056    0.1897 H         1 UNL1        0.0000
     35 H21        -0.5424   -3.2309   -1.5247 H         1 UNL1        0.0000
     36 H22         2.8468   -3.5923   -0.1981 H         1 UNL1        0.0000
     37 H23         3.1027   -1.8457    0.1543 H         1 UNL1        0.0000
     38 H24         1.9585   -2.8081    1.1567 H         1 UNL1        0.0000
@<TRIPOS>BOND
     1    1    7 1
     2    1    8 1
     3    2    7 1
     4    2    9 1
     5    3    8 1
     6    3    9 1
     7    4    7 1
     8    4   10 1
     9    5    8 1
    10    5   10 1
    11    6    9 1
    12    6   10 1
    13   10   14 1
    14   11   14 1
    15   12   14 1
    16   13   14 1
    17    1   15 1
    18    1   16 1
    19    2   17 1
    20    2   18 1
    21    3   19 1
    22    3   20 1
    23    4   21 1
    24    4   22 1
    25    5   23 1
    26    5   24 1
    27    6   25 1
    28    6   26 1
    29    7   27 1
    30    8   28 1
    31    9   29 1
    32   11   30 1
    33   11   31 1
    34   11   32 1
    35   12   33 1
    36   12   34 1
    37   12   35 1
    38   13   36 1
    39   13   37 1
    40   13   38 1
