@<TRIPOS>MOLECULE
*****
   24    24     0     0     0
SMALL
NO_CHARGES

@<TRIPOS>ATOM
      1 C1         -0.6719   -0.2445    1.2967 C.3       1 UNL1        0.0000
      2 C2         -0.3346    1.1749    0.8368 C.3       1 UNL1        0.0000
      3 C3          0.3349   -1.1750   -0.8366 C.3       1 UNL1        0.0000
      4 C4          0.6721    0.2444   -1.2966 C.3       1 UNL1        0.0000
      5 C5         -0.8728   -1.1715    0.0991 C.3       1 UNL1        0.0000
      6 C6          0.8728    1.1716   -0.0991 C.3       1 UNL1        0.0000
      7 N1         -1.1008   -2.5548    0.5949 N.4       1 UNL1        0.0000
      8 N2          1.1003    2.5549   -0.5951 N.4       1 UNL1        0.0000
      9 H1          0.1424   -0.6157    1.9323 H         1 UNL1        0.0000
     10 H2         -1.5781   -0.2192    1.9136 H         1 UNL1        0.0000
     11 H3         -1.2087    1.6014    0.3279 H         1 UNL1        0.0000
     12 H4         -0.1333    1.8013    1.7140 H         1 UNL1        0.0000
     13 H5          0.1347   -1.8019   -1.7136 H         1 UNL1        0.0000
     14 H6          1.2091   -1.6016   -0.3277 H         1 UNL1        0.0000
     15 H7          1.5777    0.2193   -1.9142 H         1 UNL1        0.0000
     16 H8         -0.1423    0.6155   -1.9324 H         1 UNL1        0.0000
     17 H9         -1.7792   -0.8921   -0.4505 H         1 UNL1        0.0000
     18 H10         1.7794    0.8929    0.4504 H         1 UNL1        0.0000
     19 H11        -1.6862   -2.5477    1.4354 H         1 UNL1        0.0000
     20 H12        -0.2120   -3.0074    0.8291 H         1 UNL1        0.0000
     21 H13        -1.5706   -3.1229   -0.1164 H         1 UNL1        0.0000
     22 H14         2.0416    2.8778   -0.3524 H         1 UNL1        0.0000
     23 H15         0.4240    3.2042   -0.1820 H         1 UNL1        0.0000
     24 H16         1.0014    2.5966   -1.6138 H         1 UNL1        0.0000
@<TRIPOS>BOND
     1    1    2 1
     2    1    5 1
     3    2    6 1
     4    3    4 1
     5    3    5 1
     6    4    6 1
     7    5    7 1
     8    6    8 1
     9    1    9 1
    10    1   10 1
    11    2   11 1
    12    2   12 1
    13    3   13 1
    14    3   14 1
    15    4   15 1
    16    4   16 1
    17    5   17 1
    18    6   18 1
    19    7   19 1
    20    7   20 1
    21    7   21 1
    22    8   22 1
    23    8   23 1
    24    8   24 1
