@<TRIPOS>MOLECULE
Cpptraj
  188   207     0     0     0
SMALL
USER_CHARGES

@<TRIPOS>ATOM
      1 C1          9.4990   22.0080    3.4940 C.3       1 <0>         0.0829
      2 C2          9.3660   20.5960    3.9880 C.ar      1 <0>        -0.0723
      3 C3          9.6850   20.0680    5.2730 C.ar      1 <0>        -0.1207
      4 C4          9.3040   18.7600    5.5660 C.ar      1 <0>        -0.1437
      5 C5          8.7730   17.9090    4.5320 C.ar      1 <0>        -0.1380
      6 C6          8.6420   18.3250    3.2390 C.ar      1 <0>        -0.1066
      7 C7          8.9680   19.6950    2.9630 C.ar      1 <0>        -0.0672
      8 C8          8.8820   20.2560    1.5820 C.3       1 <0>         0.0720
      9 C9          7.9270   21.4650    1.5700 C.ar      1 <0>        -0.0672
     10 C10         6.8110   21.7080    0.7490 C.ar      1 <0>        -0.1066
     11 C11         6.0040   22.7680    1.1210 C.ar      1 <0>        -0.1380
     12 C12         6.2210   23.5480    2.2910 C.ar      1 <0>        -0.1437
     13 C13         7.3790   23.3390    3.0370 C.ar      1 <0>        -0.1207
     14 C14         8.2100   22.3140    2.6800 C.ar      1 <0>        -0.0723
     15 C15        10.2360   20.9850    1.3860 C.ar      1 <0>        -0.0908
     16 C16        10.5720   21.8550    2.4250 C.ar      1 <0>        -0.0852
     17 O1          9.8570   18.4980   -5.2340 O.3       1 <0>        -0.7559
     18 O2          7.5420   19.1920   -5.4580 O.3       1 <0>        -0.7559
     19 O3          9.1410   20.6860   -4.5060 O.3       1 <0>        -0.7559
     20 S1          8.7580   19.3160   -4.7140 S.3       1 <0>         1.4194
     21 C17         8.3830   18.5790   -3.1650 C.3       1 <0>        -0.2885
     22 C18         9.5800   18.5440   -2.1940 C.3       1 <0>        -0.0406
     23 C19         9.8340   19.8660   -1.4950 C.3       1 <0>         0.1367
     24 O4         10.8910   19.6530   -0.4420 O.3       1 <0>        -0.3589
     25 C20        11.1660   20.7120    0.3890 C.ar      1 <0>         0.1420
     26 C21        11.6570   22.6830    2.3170 C.ar      1 <0>         0.1176
     27 O5         11.9030   23.5940    3.3310 O.3       1 <0>        -0.3569
     28 C22        11.2980   24.8380    3.2400 C.3       1 <0>         0.1192
     29 C23        11.2890   25.5510    4.5770 C.3       1 <0>        -0.0324
     30 C24        12.6920   25.8620    5.2020 C.3       1 <0>        -0.3003
     31 S2         12.5470   26.7860    6.7500 S.3       1 <0>         1.4283
     32 O6         11.9850   28.0760    6.4210 O.3       1 <0>        -0.7595
     33 O7         13.9160   26.8390    7.2220 O.3       1 <0>        -0.7595
     34 O8         11.6800   25.9590    7.5100 O.3       1 <0>        -0.7595
     35 C25        13.4660   21.1230   -0.7400 C.3       1 <0>         0.1480
     36 C26        12.3700   21.4580    0.2900 C.ar      1 <0>        -0.1133
     37 C27        12.5490   22.5490    1.2200 C.ar      1 <0>        -0.1103
     38 C28        13.8950   23.3310    1.3320 C.3       1 <0>         0.1341
     39 O9         12.5340   22.0250   -3.4410 O.2       1 <0>        -0.5879
     40 C29        13.3540   22.6890   -2.7860 C.2       1 <0>         0.8105
     41 N1         13.8770   22.3440   -1.5370 N.am      1 <0>        -0.4842
     42 C30        14.8540   23.3030   -1.0900 C.3       1 <0>         0.2457
     43 C31        16.1800   22.5680   -0.8480 C.3       1 <0>        -0.0809
     44 N2         14.2810   24.0270    0.0940 N.am      1 <0>        -0.4569
     45 C32        14.2240   25.3910   -0.1180 C.2       1 <0>         0.8161
     46 O10        14.0050   26.2360    0.7250 O.2       1 <0>        -0.6151
     47 C33        13.4200   24.6260   -4.3150 C.3       1 <0>         0.3211
     48 N3         13.8520   23.9500   -3.1480 N.am      1 <0>        -0.5170
     49 C34        14.8980   24.3800   -2.2130 C.3       1 <0>         0.2747
     50 C35        16.2470   24.5840   -2.9090 C.3       1 <0>        -0.0973
     51 N4         14.4540   25.6240   -1.5010 N.am      1 <0>        -0.5169
     52 C36        14.4150   26.9190   -2.1810 C.3       1 <0>         0.4241
     53 O11        10.5050   24.4090   -4.6680 O.2       1 <0>        -0.5898
     54 C37        11.0060   25.4490   -4.3320 C.2       1 <0>         0.8242
     55 N5         12.3820   25.6220   -4.0800 N.am      1 <0>        -0.5181
     56 C38        12.6900   27.0260   -3.9410 C.3       1 <0>         0.3712
     57 N6         13.0480   27.2680   -2.6080 N.pl3     1 <0>        -0.7171
     58 C39         2.4250   26.9390    2.8260 C.3       1 <0>         0.0694
     59 C40         1.1320   27.1550    2.1020 C.ar      1 <0>        -0.0697
     60 C41         0.4170   28.3580    2.0860 C.ar      1 <0>        -0.1181
     61 C42        -0.6750   28.4840    1.1590 C.ar      1 <0>        -0.1401
     62 C43        -1.1640   27.3740    0.4820 C.ar      1 <0>        -0.1361
     63 C44        -0.4530   26.1390    0.5460 C.ar      1 <0>        -0.1166
     64 C45         0.7290   26.1110    1.2390 C.ar      1 <0>        -0.0663
     65 C46         1.7380   24.9300    1.2050 C.3       1 <0>         0.0818
     66 C47         1.7990   24.5470    2.6680 C.ar      1 <0>        -0.0663
     67 C48         1.2720   23.3380    3.1200 C.ar      1 <0>        -0.1166
     68 C49         1.1280   23.1500    4.4810 C.ar      1 <0>        -0.1361
     69 C50         1.5850   24.1320    5.4090 C.ar      1 <0>        -0.1401
     70 C51         2.0350   25.3510    4.8840 C.ar      1 <0>        -0.1181
     71 C52         2.1280   25.5870    3.5340 C.ar      1 <0>        -0.0697
     72 C53         3.4550   26.6310    1.7090 C.ar      1 <0>        -0.0564
     73 C54         3.0010   25.6680    0.8360 C.ar      1 <0>        -0.1345
     74 O12         6.5130   30.4780    5.7950 O.3       1 <0>        -0.7614
     75 O13         8.2550   31.9870    4.9800 O.3       1 <0>        -0.7614
     76 O14         5.9000   32.6430    4.9830 O.3       1 <0>        -0.7614
     77 S3          6.8710   31.5910    4.9110 S.3       1 <0>         1.4292
     78 C55         6.5960   30.8340    3.2640 C.3       1 <0>        -0.2977
     79 C56         5.1020   30.6700    2.9650 C.3       1 <0>        -0.0423
     80 C57         4.9020   29.6300    1.8080 C.3       1 <0>         0.1190
     81 O15         5.0670   28.3100    2.3560 O.3       1 <0>        -0.3462
     82 C58         4.6850   27.2880    1.5900 C.ar      1 <0>         0.0926
     83 C59         3.8140   25.3230   -0.2340 C.ar      1 <0>         0.1757
     84 O16         3.4250   24.3000   -1.1420 O.3       1 <0>        -0.3485
     85 C60         2.3970   24.5530   -2.1910 C.3       1 <0>         0.1117
     86 C61         2.0620   23.2070   -2.8670 C.3       1 <0>        -0.0303
     87 C62         1.2410   23.3780   -4.1290 C.3       1 <0>        -0.3041
     88 S4          1.3130   21.9400   -5.2460 S.3       1 <0>         1.4153
     89 O17         2.7010   22.0190   -5.7140 O.3       1 <0>        -0.7547
     90 O18         0.9560   20.8220   -4.3860 O.3       1 <0>        -0.7547
     91 O19         0.3160   22.2100   -6.2190 O.3       1 <0>        -0.7547
     92 C63         6.7180   27.5570    0.3700 C.2       1 <0>        -0.1195
     93 C64         5.5050   26.8940    0.5290 C.ar      1 <0>         0.0084
     94 C65         5.0500   25.9080   -0.4150 C.ar      1 <0>        -0.1466
     95 C66         5.9290   25.4950   -1.4230 C.2       1 <0>         0.0646
     96 O20         8.9630   29.1990   -0.0150 O.2       1 <0>        -0.6250
     97 C67         8.3380   28.7760   -0.9280 C.2       1 <0>         0.7922
     98 N7          7.1280   28.1260   -0.8610 N.am      1 <0>        -0.3432
     99 C68         6.6280   27.8050   -2.1310 C.3       1 <0>         0.2305
    100 C69         5.2450   28.3240   -2.3030 C.3       1 <0>        -0.0735
    101 N8          6.5760   26.3660   -2.3420 N.am      1 <0>        -0.3779
    102 C70         7.3800   25.9660   -3.3480 C.2       1 <0>         0.7923
    103 O21         7.6130   24.8210   -3.6500 O.2       1 <0>        -0.5257
    104 C71        10.0600   29.2960   -2.5630 C.3       1 <0>         0.4402
    105 N9          8.7590   28.7800   -2.2310 N.am      1 <0>        -0.5363
    106 C72         7.7620   28.2830   -3.1830 C.3       1 <0>         0.2531
    107 C73         7.3500   29.4430   -4.1480 C.3       1 <0>        -0.0878
    108 N10         8.0650   27.0380   -3.8360 N.am      1 <0>        -0.5171
    109 C74         9.1090   26.8740   -4.8820 C.3       1 <0>         0.3094
    110 C75        12.3220   28.6880   -0.8100 C.2       1 <0>        -0.3176
    111 C76        12.1120   27.9880   -1.8690 C.2       1 <0>         0.3170
    112 N11        10.9960   28.1540   -2.7000 N.pl3     1 <0>        -0.7560
    113 C77        11.2930   27.7210   -4.0360 C.3       1 <0>         0.3756
    114 N12        10.4070   26.6440   -4.3230 N.am      1 <0>        -0.5322
    115 H1          9.7720   22.7120    4.2900 H         1 <0>         0.0944
    116 H2         10.0570   20.6740    6.0940 H         1 <0>         0.1310
    117 H3          9.4080   18.3120    6.5500 H         1 <0>         0.1219
    118 H4          8.5650   16.8720    4.7770 H         1 <0>         0.1236
    119 H5          8.3430   17.6490    2.4440 H         1 <0>         0.1491
    120 H6          8.7620   19.5020    0.7940 H         1 <0>         0.1091
    121 H7          6.5100   20.9650    0.0160 H         1 <0>         0.1491
    122 H8          5.1250   22.9370    0.5060 H         1 <0>         0.1236
    123 H9          5.5960   24.3570    2.6570 H         1 <0>         0.1219
    124 H10         7.6080   23.9860    3.8790 H         1 <0>         0.1310
    125 H11         7.6130   19.1750   -2.6610 H         1 <0>         0.0635
    126 H12         8.0620   17.5800   -3.4870 H         1 <0>         0.0635
    127 H13         9.3710   17.8330   -1.3850 H         1 <0>         0.0733
    128 H14        10.4610   18.0980   -2.6720 H         1 <0>         0.0733
    129 H15        10.0450   20.5620   -2.3160 H         1 <0>         0.0394
    130 H16         8.8960   20.1930   -1.0290 H         1 <0>         0.0394
    131 H17        11.9610   25.4250    2.5910 H         1 <0>         0.0431
    132 H18        10.2670   24.6350    2.9280 H         1 <0>         0.0431
    133 H19        10.6120   26.4030    4.4340 H         1 <0>         0.0523
    134 H20        10.7480   24.9260    5.2990 H         1 <0>         0.0523
    135 H21        13.2960   24.9560    5.3330 H         1 <0>         0.0770
    136 H22        13.4350   26.3320    4.5470 H         1 <0>         0.0770
    137 H23        14.3260   20.6950   -0.2100 H         1 <0>         0.0866
    138 H24        13.0350   20.4140   -1.4570 H         1 <0>         0.0866
    139 H25        13.9640   24.0700    2.1400 H         1 <0>         0.0888
    140 H26        14.7010   22.6310    1.5830 H         1 <0>         0.0888
    141 H27        16.2800   21.8010   -1.6260 H         1 <0>         0.0481
    142 H28        17.1000   23.1620   -0.9210 H         1 <0>         0.0481
    143 H29        16.1320   22.0630    0.1240 H         1 <0>         0.0481
    144 H30        14.2810   25.1430   -4.7530 H         1 <0>         0.0719
    145 H31        12.9410   23.9100   -4.9930 H         1 <0>         0.0719
    146 H32        16.6960   23.6360   -3.2310 H         1 <0>         0.0468
    147 H33        16.1160   25.2270   -3.7880 H         1 <0>         0.0468
    148 H34        16.9010   25.0810   -2.1820 H         1 <0>         0.0468
    149 H35        14.6890   27.6690   -1.4310 H         1 <0>         0.0604
    150 H36        14.9990   26.8570   -3.1060 H         1 <0>         0.0604
    151 H37        13.5150   27.2740   -4.6180 H         1 <0>         0.0450
    152 H38         2.7350   27.7330    3.5160 H         1 <0>         0.0946
    153 H39         0.7060   29.2620    2.6150 H         1 <0>         0.1344
    154 H40        -1.0760   29.4920    1.2140 H         1 <0>         0.1214
    155 H41        -1.9520   27.4360   -0.2620 H         1 <0>         0.1256
    156 H42        -0.7810   25.2730   -0.0220 H         1 <0>         0.1402
    157 H43         1.3830   24.0900    0.5950 H         1 <0>         0.0957
    158 H44         0.9170   22.6380    2.3690 H         1 <0>         0.1402
    159 H45         0.7140   22.2330    4.8910 H         1 <0>         0.1256
    160 H46         1.5350   23.9070    6.4710 H         1 <0>         0.1214
    161 H47         2.3420   26.0730    5.6350 H         1 <0>         0.1344
    162 H48         7.0120   31.3520    2.3910 H         1 <0>         0.0733
    163 H49         7.0200   29.8220    3.2800 H         1 <0>         0.0733
    164 H50         4.6320   30.2450    3.8600 H         1 <0>         0.0539
    165 H51         4.6880   31.6570    2.7260 H         1 <0>         0.0539
    166 H52         3.8800   29.7670    1.4310 H         1 <0>         0.0418
    167 H53         5.5040   29.7950    0.9060 H         1 <0>         0.0418
    168 H54         1.5140   24.9920   -1.7100 H         1 <0>         0.0521
    169 H55         2.7000   25.3700   -2.8560 H         1 <0>         0.0521
    170 H56         2.9950   22.6550   -3.0420 H         1 <0>         0.0408
    171 H57         1.4890   22.5470   -2.2040 H         1 <0>         0.0408
    172 H58         0.1840   23.6000   -3.9370 H         1 <0>         0.0868
    173 H59         1.6340   24.1600   -4.7900 H         1 <0>         0.0868
    174 H60         7.3300   27.8180    1.2290 H         1 <0>         0.1798
    175 H61         5.9080   24.4400   -1.6840 H         1 <0>         0.2348
    176 H62         4.4780   27.9990   -1.5900 H         1 <0>         0.0542
    177 H63         5.2690   29.4140   -2.1800 H         1 <0>         0.0542
    178 H64         4.7990   28.2030   -3.2980 H         1 <0>         0.0542
    179 H65         9.9280   29.7470   -3.5530 H         1 <0>         0.0673
    180 H66        10.3690   29.9280   -1.7240 H         1 <0>         0.0673
    181 H67         6.4100   29.3300   -4.7020 H         1 <0>         0.0461
    182 H68         7.3360   30.3400   -3.5170 H         1 <0>         0.0461
    183 H69         8.1570   29.7070   -4.8430 H         1 <0>         0.0461
    184 H70         8.8800   26.0360   -5.5500 H         1 <0>         0.0785
    185 H71         9.1010   27.8270   -5.4230 H         1 <0>         0.0785
    186 H72        11.5040   29.2210   -0.3290 H         1 <0>         0.1550
    187 H73        13.2580   28.7440   -0.2580 H         1 <0>         0.1550
    188 H74        11.1990   28.4660   -4.8340 H         1 <0>         0.0521
@<TRIPOS>BOND
     1    1    2 1
     2    1   14 1
     3    1   16 1
     4    2    3 ar
     5    2    7 ar
     6    3    4 ar
     7    4    5 ar
     8    5    6 ar
     9    6    7 ar
    10    7    8 1
    11    8    9 1
    12    8   15 1
    13    9   10 ar
    14    9   14 ar
    15   10   11 ar
    16   11   12 ar
    17   12   13 ar
    18   13   14 ar
    19   15   16 ar
    20   15   25 ar
    21   16   26 ar
    22   17   20 1
    23   18   20 1
    24   19   20 1
    25   20   21 1
    26   21   22 1
    27   22   23 1
    28   23   24 1
    29   24   25 1
    30   25   36 ar
    31   26   27 1
    32   26   37 ar
    33   27   28 1
    34   28   29 1
    35   29   30 1
    36   30   31 1
    37   31   32 1
    38   31   33 1
    39   31   34 1
    40   35   36 1
    41   35   41 1
    42   36   37 ar
    43   37   38 1
    44   38   44 1
    45   39   40 2
    46   40   41 am
    47   40   48 am
    48   41   42 1
    49   42   43 1
    50   42   44 1
    51   42   49 1
    52   44   45 am
    53   45   46 2
    54   45   51 am
    55   47   48 1
    56   47   55 1
    57   48   49 1
    58   49   50 1
    59   49   51 1
    60   51   52 1
    61   52   57 1
    62   53   54 2
    63   54   55 am
    64   54  114 am
    65   55   56 1
    66   56   57 1
    67   56  113 1
    68   57  111 1
    69   58   59 1
    70   58   71 1
    71   58   72 1
    72   59   60 ar
    73   59   64 ar
    74   60   61 ar
    75   61   62 ar
    76   62   63 ar
    77   63   64 ar
    78   64   65 1
    79   65   66 1
    80   65   73 1
    81   66   67 ar
    82   66   71 ar
    83   67   68 ar
    84   68   69 ar
    85   69   70 ar
    86   70   71 ar
    87   72   73 ar
    88   72   82 ar
    89   73   83 ar
    90   74   77 1
    91   75   77 1
    92   76   77 1
    93   77   78 1
    94   78   79 1
    95   79   80 1
    96   80   81 1
    97   81   82 1
    98   82   93 ar
    99   83   84 1
   100   83   94 ar
   101   84   85 1
   102   85   86 1
   103   86   87 1
   104   87   88 1
   105   88   89 1
   106   88   90 1
   107   88   91 1
   108   92   93 2
   109   92   98 1
   110   93   94 ar
   111   94   95 2
   112   95  101 1
   113   96   97 2
   114   97   98 am
   115   97  105 am
   116   98   99 1
   117   99  100 1
   118   99  101 1
   119   99  106 1
   120  101  102 am
   121  102  103 2
   122  102  108 am
   123  104  105 1
   124  104  112 1
   125  105  106 1
   126  106  107 1
   127  106  108 1
   128  108  109 1
   129  109  114 1
   130  110  111 2
   131  111  112 1
   132  112  113 1
   133  113  114 1
   134    1  115 1
   135    3  116 1
   136    4  117 1
   137    5  118 1
   138    6  119 1
   139    8  120 1
   140   10  121 1
   141   11  122 1
   142   12  123 1
   143   13  124 1
   144   21  125 1
   145   21  126 1
   146   22  127 1
   147   22  128 1
   148   23  129 1
   149   23  130 1
   150   28  131 1
   151   28  132 1
   152   29  133 1
   153   29  134 1
   154   30  135 1
   155   30  136 1
   156   35  137 1
   157   35  138 1
   158   38  139 1
   159   38  140 1
   160   43  141 1
   161   43  142 1
   162   43  143 1
   163   47  144 1
   164   47  145 1
   165   50  146 1
   166   50  147 1
   167   50  148 1
   168   52  149 1
   169   52  150 1
   170   56  151 1
   171   58  152 1
   172   60  153 1
   173   61  154 1
   174   62  155 1
   175   63  156 1
   176   65  157 1
   177   67  158 1
   178   68  159 1
   179   69  160 1
   180   70  161 1
   181   78  162 1
   182   78  163 1
   183   79  164 1
   184   79  165 1
   185   80  166 1
   186   80  167 1
   187   85  168 1
   188   85  169 1
   189   86  170 1
   190   86  171 1
   191   87  172 1
   192   87  173 1
   193   92  174 1
   194   95  175 1
   195  100  176 1
   196  100  177 1
   197  100  178 1
   198  104  179 1
   199  104  180 1
   200  107  181 1
   201  107  182 1
   202  107  183 1
   203  109  184 1
   204  109  185 1
   205  110  186 1
   206  110  187 1
   207  113  188 1
