@<TRIPOS>MOLECULE
*****
   20    19     0     0     0
SMALL
NO_CHARGES

@<TRIPOS>ATOM
      1 C1          0.2465    1.0255   -0.3022 C.3       1 UNL1        0.0000
      2 C2         -0.4325    1.3433   -1.6348 C.3       1 UNL1        0.0000
      3 C3         -0.1908    2.0012    0.7803 C.3       1 UNL1        0.0000
      4 C4         -0.0230    0.3459   -2.7084 C.3       1 UNL1        0.0000
      5 N1          0.5254    1.6830    2.0390 N.4       1 UNL1        0.0000
      6 N2         -0.7389    0.6655   -3.9669 N.4       1 UNL1        0.0000
      7 H1          1.3358    1.0705   -0.4254 H         1 UNL1        0.0000
      8 H2          0.0000    0.0000    0.0000 H         1 UNL1        0.0000
      9 H3         -0.1650    2.3596   -1.9500 H         1 UNL1        0.0000
     10 H4         -1.5219    1.3240   -1.5054 H         1 UNL1        0.0000
     11 H5          0.0591    3.0353    0.5256 H         1 UNL1        0.0000
     12 H6         -1.2605    1.9227    0.9953 H         1 UNL1        0.0000
     13 H7         -0.2945   -0.6795   -2.4406 H         1 UNL1        0.0000
     14 H8          1.0470    0.3981   -2.9300 H         1 UNL1        0.0000
     15 H9         -0.0613    1.1191    2.6636 H         1 UNL1        0.0000
     16 H10         0.7863    2.5398    2.5397 H         1 UNL1        0.0000
     17 H11         1.3841    1.1543    1.8499 H         1 UNL1        0.0000
     18 H12        -0.1238    0.5494   -4.7796 H         1 UNL1        0.0000
     19 H13        -1.0753    1.6349   -3.9619 H         1 UNL1        0.0000
     20 H14        -1.5502    0.0507   -4.0948 H         1 UNL1        0.0000
@<TRIPOS>BOND
     1    1    2 1
     2    1    3 1
     3    2    4 1
     4    3    5 1
     5    4    6 1
     6    1    7 1
     7    1    8 1
     8    2    9 1
     9    2   10 1
    10    3   11 1
    11    3   12 1
    12    4   13 1
    13    4   14 1
    14    5   15 1
    15    5   16 1
    16    5   17 1
    17    6   18 1
    18    6   19 1
    19    6   20 1
