@<TRIPOS>MOLECULE
*****
   40    44     0     0     0
SMALL
NO_CHARGES

@<TRIPOS>ATOM
      1 C1          0.1713    1.6736   -1.5880 C.3       1 UNL1        0.0000
      2 C2          0.8251    2.0022    0.8138 C.3       1 UNL1        0.0000
      3 C3          2.1681    0.4713   -0.6549 C.3       1 UNL1        0.0000
      4 C4         -2.1681   -0.4713    0.6547 C.3       1 UNL1        0.0000
      5 C5         -0.8251   -2.0022   -0.8138 C.3       1 UNL1        0.0000
      6 C6         -0.1713   -1.6736    1.5879 C.3       1 UNL1        0.0000
      7 C7         -0.7340    0.4960   -1.1883 C.3       1 UNL1        0.0000
      8 C8         -0.0762    0.8266    1.2279 C.3       1 UNL1        0.0000
      9 C9          1.2749   -0.7134   -0.2495 C.3       1 UNL1        0.0000
     10 C10        -1.2749    0.7134    0.2495 C.3       1 UNL1        0.0000
     11 C11         0.0762   -0.8266   -1.2279 C.3       1 UNL1        0.0000
     12 C12         0.7339   -0.4960    1.1883 C.3       1 UNL1        0.0000
     13 C13         1.3498    1.7689   -0.6095 C.3       1 UNL1        0.0000
     14 C14        -1.3499   -1.7689    0.6095 C.3       1 UNL1        0.0000
     15 N1          2.2188    2.9075   -1.0017 N.4       1 UNL1        0.0000
     16 N2         -2.2187   -2.9075    1.0018 N.4       1 UNL1        0.0000
     17 H1          0.5318    1.5300   -2.6147 H         1 UNL1        0.0000
     18 H2         -0.4107    2.6043   -1.5840 H         1 UNL1        0.0000
     19 H3          0.2568    2.9397    0.8676 H         1 UNL1        0.0000
     20 H4          1.6579    2.0959    1.5226 H         1 UNL1        0.0000
     21 H5          3.0296    0.5329    0.0227 H         1 UNL1        0.0000
     22 H6          2.5703    0.3027   -1.6622 H         1 UNL1        0.0000
     23 H7         -2.5701   -0.3027    1.6621 H         1 UNL1        0.0000
     24 H8         -3.0289   -0.5334   -0.0235 H         1 UNL1        0.0000
     25 H9         -1.6581   -2.0959   -1.5225 H         1 UNL1        0.0000
     26 H10        -0.2565   -2.9396   -0.8675 H         1 UNL1        0.0000
     27 H11         0.4109   -2.6041    1.5841 H         1 UNL1        0.0000
     28 H12        -0.5318   -1.5299    2.6147 H         1 UNL1        0.0000
     29 H13        -1.5729    0.4358   -1.8928 H         1 UNL1        0.0000
     30 H14        -0.4463    1.0020    2.2458 H         1 UNL1        0.0000
     31 H15         1.8680   -1.6358   -0.2847 H         1 UNL1        0.0000
     32 H16        -1.8681    1.6358    0.2848 H         1 UNL1        0.0000
     33 H17         0.4462   -1.0020   -2.2458 H         1 UNL1        0.0000
     34 H18         1.5729   -0.4358    1.8928 H         1 UNL1        0.0000
     35 H19         3.1301    2.8491   -0.5361 H         1 UNL1        0.0000
     36 H20         1.7876    3.8012   -0.7440 H         1 UNL1        0.0000
     37 H21         2.3794    2.9128   -2.0142 H         1 UNL1        0.0000
     38 H22        -2.6240   -2.7549    1.9308 H         1 UNL1        0.0000
     39 H23        -1.6842   -3.7820    1.0287 H         1 UNL1        0.0000
     40 H24        -2.9885   -3.0264    0.3353 H         1 UNL1        0.0000
@<TRIPOS>BOND
     1    1    7 1
     2    1   13 1
     3    2    8 1
     4    2   13 1
     5    3    9 1
     6    3   13 1
     7    4   10 1
     8    4   14 1
     9    5   11 1
    10    5   14 1
    11    6   12 1
    12    6   14 1
    13    7   10 1
    14    7   11 1
    15    8   10 1
    16    8   12 1
    17    9   11 1
    18    9   12 1
    19   13   15 1
    20   14   16 1
    21    1   17 1
    22    1   18 1
    23    2   19 1
    24    2   20 1
    25    3   21 1
    26    3   22 1
    27    4   23 1
    28    4   24 1
    29    5   25 1
    30    5   26 1
    31    6   27 1
    32    6   28 1
    33    7   29 1
    34    8   30 1
    35    9   31 1
    36   10   32 1
    37   11   33 1
    38   12   34 1
    39   15   35 1
    40   15   36 1
    41   15   37 1
    42   16   38 1
    43   16   39 1
    44   16   40 1
