@<TRIPOS>MOLECULE
*****
   34    36     0     0     0
SMALL
NO_CHARGES

@<TRIPOS>ATOM
      1 C1         -0.0780    1.6955   -0.9593 C.3       1 UNL1        0.0000
      2 C2         -1.7689    0.6135    0.5439 C.3       1 UNL1        0.0000
      3 C3          0.4941    1.2226    1.4360 C.3       1 UNL1        0.0000
      4 C4         -0.6913   -0.7136   -1.2913 C.3       1 UNL1        0.0000
      5 C5          1.5768   -0.1032   -0.3970 C.3       1 UNL1        0.0000
      6 C6         -0.1177   -1.1876    1.1092 C.3       1 UNL1        0.0000
      7 C7         -1.2253    0.6735   -0.8934 C.3       1 UNL1        0.0000
      8 C8          1.0491    1.2857    0.0032 C.3       1 UNL1        0.0000
      9 C9         -0.6501    0.1982    1.5138 C.3       1 UNL1        0.0000
     10 C10         0.4413   -1.1521   -0.3330 C.3       1 UNL1        0.0000
     11 C11         1.4921   -2.5350   -2.1577 C.3       1 UNL1        0.0000
     12 C12         0.9700   -2.5324   -0.7320 C.3       1 UNL1        0.0000
     13 N1         -0.1295   -3.5164   -0.6135 N.3       1 UNL1        0.0000
     14 H1          0.3087    1.7592   -1.9838 H         1 UNL1        0.0000
     15 H2         -0.4501    2.6934   -0.6966 H         1 UNL1        0.0000
     16 H3         -2.1710    1.5923    0.8333 H         1 UNL1        0.0000
     17 H4         -2.5992   -0.1011    0.6011 H         1 UNL1        0.0000
     18 H5          1.2927    0.9466    2.1355 H         1 UNL1        0.0000
     19 H6          0.1320    2.2122    1.7411 H         1 UNL1        0.0000
     20 H7         -1.5107   -1.4436   -1.2697 H         1 UNL1        0.0000
     21 H8         -0.3235   -0.6840   -2.3251 H         1 UNL1        0.0000
     22 H9          1.9965   -0.0596   -1.4104 H         1 UNL1        0.0000
     23 H10         2.3981   -0.3918    0.2715 H         1 UNL1        0.0000
     24 H11         0.6652   -1.5009    1.8120 H         1 UNL1        0.0000
     25 H12        -0.9239   -1.9286    1.1855 H         1 UNL1        0.0000
     26 H13        -2.0260    0.9718   -1.5794 H         1 UNL1        0.0000
     27 H14         1.8624    2.0182   -0.0464 H         1 UNL1        0.0000
     28 H15        -1.0425    0.1589    2.5361 H         1 UNL1        0.0000
     29 H16         0.6994   -2.2448   -2.8559 H         1 UNL1        0.0000
     30 H17         1.8482   -3.5302   -2.4437 H         1 UNL1        0.0000
     31 H18         2.3187   -1.8271   -2.2858 H         1 UNL1        0.0000
     32 H19         1.7675   -2.8229   -0.0441 H         1 UNL1        0.0000
     33 H20        -0.7751   -3.3821    0.1218 H         1 UNL1        0.0000
     34 H21        -0.0435   -4.3507   -1.1354 H         1 UNL1        0.0000
@<TRIPOS>BOND
     1    1    7 1
     2    1    8 1
     3    2    7 1
     4    2    9 1
     5    3    8 1
     6    3    9 1
     7    4    7 1
     8    4   10 1
     9    5    8 1
    10    5   10 1
    11    6    9 1
    12    6   10 1
    13   10   12 1
    14   11   12 1
    15   12   13 1
    16    1   14 1
    17    1   15 1
    18    2   16 1
    19    2   17 1
    20    3   18 1
    21    3   19 1
    22    4   20 1
    23    4   21 1
    24    5   22 1
    25    5   23 1
    26    6   24 1
    27    6   25 1
    28    7   26 1
    29    8   27 1
    30    9   28 1
    31   11   29 1
    32   11   30 1
    33   11   31 1
    34   12   32 1
    35   13   33 1
    36   13   34 1
