@<TRIPOS>MOLECULE
*****
   34    36     0     0     0
SMALL
NO_CHARGES

@<TRIPOS>ATOM
      1 C1          1.0478    0.2578    0.1979 C.3       1 UNL1        0.0000
      2 C2          0.4477    1.1846    2.4495 C.3       1 UNL1        0.0000
      3 C3          0.4587    2.6834    0.4389 C.3       1 UNL1        0.0000
      4 C4          2.8131    0.5084    1.9618 C.3       1 UNL1        0.0000
      5 C5          2.8240    2.0104   -0.0534 C.3       1 UNL1        0.0000
      6 C6          2.2227    2.9393    2.2034 C.3       1 UNL1        0.0000
      7 C7          1.3337    0.1709    1.7064 C.3       1 UNL1        0.0000
      8 C8          1.3447    1.6771   -0.3142 C.3       1 UNL1        0.0000
      9 C9          0.7417    2.6086    1.9487 C.3       1 UNL1        0.0000
     10 C10         3.1362    1.9359    1.4601 C.3       1 UNL1        0.0000
     11 C11         4.9344    2.2379    3.1983 C.3       1 UNL1        0.0000
     12 C12         4.6086    2.2682    1.7156 C.3       1 UNL1        0.0000
     13 N1          4.8919    3.6194    1.1816 N.3       1 UNL1        0.0000
     14 H1          1.6628   -0.4721   -0.3428 H         1 UNL1        0.0000
     15 H2          0.0000   -0.0000    0.0000 H         1 UNL1        0.0000
     16 H3         -0.6107    0.9433    2.2913 H         1 UNL1        0.0000
     17 H4          0.6306    1.1217    3.5292 H         1 UNL1        0.0000
     18 H5          0.6497    3.6992    0.0716 H         1 UNL1        0.0000
     19 H6         -0.5995    2.4687    0.2453 H         1 UNL1        0.0000
     20 H7          3.0298    0.4251    3.0346 H         1 UNL1        0.0000
     21 H8          3.4515   -0.2260    1.4538 H         1 UNL1        0.0000
     22 H9          3.4625    1.3103   -0.6074 H         1 UNL1        0.0000
     23 H10         3.0489    3.0135   -0.4383 H         1 UNL1        0.0000
     24 H11         2.4339    3.9637    1.8702 H         1 UNL1        0.0000
     25 H12         2.4261    2.9109    3.2816 H         1 UNL1        0.0000
     26 H13         1.1186   -0.8416    2.0658 H         1 UNL1        0.0000
     27 H14         1.1373    1.7335   -1.3887 H         1 UNL1        0.0000
     28 H15         0.1063    3.3260    2.4800 H         1 UNL1        0.0000
     29 H16         4.3106    2.9560    3.7417 H         1 UNL1        0.0000
     30 H17         5.9832    2.4980    3.3753 H         1 UNL1        0.0000
     31 H18         4.7504    1.2484    3.6315 H         1 UNL1        0.0000
     32 H19         5.2355    1.5492    1.1831 H         1 UNL1        0.0000
     33 H20         4.4184    3.8846    0.3564 H         1 UNL1        0.0000
     34 H21         5.6748    4.0939    1.5528 H         1 UNL1        0.0000
@<TRIPOS>BOND
     1    1    7 1
     2    1    8 1
     3    2    7 1
     4    2    9 1
     5    3    8 1
     6    3    9 1
     7    4    7 1
     8    4   10 1
     9    5    8 1
    10    5   10 1
    11    6    9 1
    12    6   10 1
    13   10   12 1
    14   11   12 1
    15   12   13 1
    16    1   14 1
    17    1   15 1
    18    2   16 1
    19    2   17 1
    20    3   18 1
    21    3   19 1
    22    4   20 1
    23    4   21 1
    24    5   22 1
    25    5   23 1
    26    6   24 1
    27    6   25 1
    28    7   26 1
    29    8   27 1
    30    9   28 1
    31   11   29 1
    32   11   30 1
    33   11   31 1
    34   12   32 1
    35   13   33 1
    36   13   34 1
