@<TRIPOS>MOLECULE
*****
   34    36     0     0     0
SMALL
NO_CHARGES

@<TRIPOS>ATOM
      1 N1          0.0000    0.0000    0.0000 N.3       1 UNL1        0.0000
      2 C1          0.0000    0.0000    0.0000 C.3       1 UNL1        0.0000
      3 C2          0.0000    0.0000    0.0000 C.3       1 UNL1        0.0000
      4 C3          0.0000    0.0000    0.0000 C.3       1 UNL1        0.0000
      5 C4          0.0000    0.0000    0.0000 C.3       1 UNL1        0.0000
      6 C5          0.0000    0.0000    0.0000 C.3       1 UNL1        0.0000
      7 C6          0.0000    0.0000    0.0000 C.3       1 UNL1        0.0000
      8 C7          0.0000    0.0000    0.0000 C.3       1 UNL1        0.0000
      9 C8          0.0000    0.0000    0.0000 C.3       1 UNL1        0.0000
     10 C9          0.0000    0.0000    0.0000 C.3       1 UNL1        0.0000
     11 C10         0.0000    0.0000    0.0000 C.3       1 UNL1        0.0000
     12 C11         0.0000    0.0000    0.0000 C.3       1 UNL1        0.0000
     13 C12         0.0000    0.0000    0.0000 C.3       1 UNL1        0.0000
     14 H1          0.0000    0.0000    0.0000 H         1 UNL1        0.0000
     15 H2          0.0000    0.0000    0.0000 H         1 UNL1        0.0000
     16 H3          0.0000    0.0000    0.0000 H         1 UNL1        0.0000
     17 H           0.0000    0.0000    0.0000 H         1 UNL1        0.0000
     18 H           0.0000    0.0000    0.0000 H         1 UNL1        0.0000
     19 H           0.0000    0.0000    0.0000 H         1 UNL1        0.0000
     20 H           0.0000    0.0000    0.0000 H         1 UNL1        0.0000
     21 H           0.0000    0.0000    0.0000 H         1 UNL1        0.0000
     22 H           0.0000    0.0000    0.0000 H         1 UNL1        0.0000
     23 H           0.0000    0.0000    0.0000 H         1 UNL1        0.0000
     24 H           0.0000    0.0000    0.0000 H         1 UNL1        0.0000
     25 H           0.0000    0.0000    0.0000 H         1 UNL1        0.0000
     26 H           0.0000    0.0000    0.0000 H         1 UNL1        0.0000
     27 H           0.0000    0.0000    0.0000 H         1 UNL1        0.0000
     28 H           0.0000    0.0000    0.0000 H         1 UNL1        0.0000
     29 H           0.0000    0.0000    0.0000 H         1 UNL1        0.0000
     30 H           0.0000    0.0000    0.0000 H         1 UNL1        0.0000
     31 H           0.0000    0.0000    0.0000 H         1 UNL1        0.0000
     32 H           0.0000    0.0000    0.0000 H         1 UNL1        0.0000
     33 H           0.0000    0.0000    0.0000 H         1 UNL1        0.0000
     34 H           0.0000    0.0000    0.0000 H         1 UNL1        0.0000
@<TRIPOS>BOND
     1    1    2 1
     2    2    3 1
     3    2    4 1
     4    4   12 1
     5    4    5 1
     6    5    9 1
     7    4    6 1
     8    6    7 1
     9    7   14 1
    10    7   13 1
    11    7    8 1
    12    8    9 1
    13    9   15 1
    14    9   10 1
    15   10   11 1
    16   11   16 1
    17   11   12 1
    18   11   13 1
    19    1   17 1
    20    1   18 1
    21    2   19 1
    22    3   20 1
    23    3   21 1
    24    3   22 1
    25    5   23 1
    26    5   24 1
    27    6   25 1
    28    6   26 1
    29    8   27 1
    30    8   28 1
    31   10   29 1
    32   10   30 1
    33   12   31 1
    34   12   32 1
    35   13   33 1
    36   13   34 1
