@<TRIPOS>MOLECULE
*****
   32    31     0     0     0
SMALL
USER_CHARGES

@<TRIPOS>ATOM
      1 C1         -0.3839    0.0208    1.0266 C.3       1 UNL1        0.0000
      2 C2          0.6404   -0.1422    8.6115 C.3       1 UNL1        0.5030
      3 C3          0.1807   -2.5563    8.2408 C.3       1 UNL1        0.5030
      4 C4          2.3577   -1.8390    9.2012 C.3       1 UNL1        0.5030
      5 C5          0.7090   -0.3741    2.0071 C.3       1 UNL1        0.0000
      6 C6          0.1704   -0.4786    3.4337 C.3       1 UNL1        0.0000
      7 C7          1.2651   -0.9086    4.4115 C.3       1 UNL1        0.0000
      8 C8          0.7350   -0.9808    5.8443 C.3       1 UNL1        0.0000
      9 C9          1.8381   -1.3740    6.8157 C.3       1 UNL1        0.5030
     10 N1          1.2693   -1.4752    8.1812 N.4       1 UNL1       -1.0120
     11 H1         -1.2054   -0.7026    1.0424 H         1 UNL1        0.0000
     12 H2         -0.7909    1.0026    1.2879 H         1 UNL1        0.0000
     13 H3          0.0065    0.0755    0.0053 H         1 UNL1        0.0000
     14 H4          1.4174    0.6231    8.5677 H         1 UNL1        0.0000
     15 H5         -0.1722    0.0831    7.9182 H         1 UNL1        0.0000
     16 H6          0.2655   -0.2629    9.6297 H         1 UNL1        0.0000
     17 H7          0.6319   -3.5018    7.9343 H         1 UNL1        0.0000
     18 H8         -0.1817   -2.6093    9.2692 H         1 UNL1        0.0000
     19 H9         -0.6188   -2.2634    7.5575 H         1 UNL1        0.0000
     20 H10         2.8020   -2.7868    8.8916 H         1 UNL1        0.0000
     21 H11         3.0996   -1.0381    9.1982 H         1 UNL1        0.0000
     22 H12         1.8819   -1.9297   10.1795 H         1 UNL1        0.0000
     23 H13         1.5141    0.3687    1.9665 H         1 UNL1        0.0000
     24 H14         1.1381   -1.3349    1.6995 H         1 UNL1        0.0000
     25 H15        -0.2391    0.4906    3.7436 H         1 UNL1        0.0000
     26 H16        -0.6538   -1.2018    3.4634 H         1 UNL1        0.0000
     27 H17         1.6578   -1.8890    4.1154 H         1 UNL1        0.0000
     28 H18         2.0997   -0.1984    4.3643 H         1 UNL1        0.0000
     29 H19        -0.0838   -1.7092    5.8967 H         1 UNL1        0.0000
     30 H20         0.3171   -0.0077    6.1305 H         1 UNL1        0.0000
     31 H21         2.2657   -2.3521    6.5767 H         1 UNL1        0.0000
     32 H22         2.6336   -0.6242    6.8580 H         1 UNL1        0.0000
@<TRIPOS>BOND
     1    1    5 1
     2    2   10 1
     3    3   10 1
     4    4   10 1
     5    5    6 1
     6    6    7 1
     7    7    8 1
     8    8    9 1
     9    9   10 1
    10    1   11 1
    11    1   12 1
    12    1   13 1
    13    2   14 1
    14    2   15 1
    15    2   16 1
    16    3   17 1
    17    3   18 1
    18    3   19 1
    19    4   20 1
    20    4   21 1
    21    4   22 1
    22    5   23 1
    23    5   24 1
    24    6   25 1
    25    6   26 1
    26    7   27 1
    27    7   28 1
    28    8   29 1
    29    8   30 1
    30    9   31 1
    31    9   32 1
