@<TRIPOS>MOLECULE
*****
   32    31     0     0     0
SMALL
NO_CHARGES

@<TRIPOS>ATOM
      1 C1          0.2472    1.4115   -4.9592 C.3       1 UNL1        0.0000
      2 C2          1.1214   -4.1327    4.8411 C.3       1 UNL1        0.0000
      3 C3          0.2643   -0.9249   -0.5272 C.3       1 UNL1        0.0000
      4 C4          1.0909   -1.8221    0.3955 C.3       1 UNL1        0.0000
      5 C5          1.0311   -0.5840   -1.8058 C.3       1 UNL1        0.0000
      6 C6          0.3372   -2.1355    1.6888 C.3       1 UNL1        0.0000
      7 C7          0.1892    0.2791   -2.7337 C.3       1 UNL1        0.0000
      8 C8          1.1794   -2.9986    2.6164 C.3       1 UNL1        0.0000
      9 N1          0.9540    0.5459   -3.9756 N.4       1 UNL1        0.0000
     10 N2          0.3934   -3.3136    3.8335 N.4       1 UNL1        0.0000
     11 H1          0.0039    2.3522   -4.4619 H         1 UNL1        0.0000
     12 H2          0.9197    1.5761   -5.8033 H         1 UNL1        0.0000
     13 H3         -0.6578    0.8888   -5.2746 H         1 UNL1        0.0000
     14 H4          2.0314   -3.5952    5.1138 H         1 UNL1        0.0000
     15 H5          0.4664   -4.2594    5.7051 H         1 UNL1        0.0000
     16 H6          1.3567   -5.0950    4.3824 H         1 UNL1        0.0000
     17 H7         -0.6748   -1.4293   -0.7856 H         1 UNL1        0.0000
     18 H8          0.0000    0.0000    0.0000 H         1 UNL1        0.0000
     19 H9          1.3347   -2.7573   -0.1231 H         1 UNL1        0.0000
     20 H10         2.0404   -1.3279    0.6346 H         1 UNL1        0.0000
     21 H11         1.9586   -0.0577   -1.5483 H         1 UNL1        0.0000
     22 H12         1.3195   -1.5098   -2.3189 H         1 UNL1        0.0000
     23 H13        -0.6013   -2.6516    1.4510 H         1 UNL1        0.0000
     24 H14         0.0692   -1.1990    2.1937 H         1 UNL1        0.0000
     25 H15        -0.7364   -0.2217   -3.0323 H         1 UNL1        0.0000
     26 H16        -0.0444    1.2514   -2.2899 H         1 UNL1        0.0000
     27 H17         1.4483   -3.9539    2.1561 H         1 UNL1        0.0000
     28 H18         2.0846   -2.4817    2.9483 H         1 UNL1        0.0000
     29 H19         1.1921   -0.3487   -4.4285 H         1 UNL1        0.0000
     30 H20         1.8559    0.9824   -3.7341 H         1 UNL1        0.0000
     31 H21        -0.4706   -3.8066    3.5636 H         1 UNL1        0.0000
     32 H22         0.0842   -2.4361    4.2769 H         1 UNL1        0.0000
@<TRIPOS>BOND
     1    1    9 1
     2    2   10 1
     3    3    4 1
     4    3    5 1
     5    4    6 1
     6    5    7 1
     7    6    8 1
     8    7    9 1
     9    8   10 1
    10    1   11 1
    11    1   12 1
    12    1   13 1
    13    2   14 1
    14    2   15 1
    15    2   16 1
    16    3   17 1
    17    3   18 1
    18    4   19 1
    19    4   20 1
    20    5   21 1
    21    5   22 1
    22    6   23 1
    23    6   24 1
    24    7   25 1
    25    7   26 1
    26    8   27 1
    27    8   28 1
    28    9   29 1
    29    9   30 1
    30   10   31 1
    31   10   32 1
