@<TRIPOS>MOLECULE
*****
   38    37     0     0     0
SMALL
NO_CHARGES

@<TRIPOS>ATOM
      1 C1          0.1708    1.3589   -4.9777 C.3       1 UNL1        0.0000
      2 C2          2.3028    1.1673   -3.7054 C.3       1 UNL1        0.0000
      3 C3          1.1387   -4.2112    4.7912 C.3       1 UNL1        0.0000
      4 C4         -0.1172   -2.0767    4.5320 C.3       1 UNL1        0.0000
      5 C5          0.2643   -0.9249   -0.5272 C.3       1 UNL1        0.0000
      6 C6          1.0909   -1.8221    0.3955 C.3       1 UNL1        0.0000
      7 C7          1.0311   -0.5840   -1.8058 C.3       1 UNL1        0.0000
      8 C8          0.3372   -2.1355    1.6888 C.3       1 UNL1        0.0000
      9 C9          0.1892    0.2791   -2.7337 C.3       1 UNL1        0.0000
     10 C10         1.1794   -2.9986    2.6164 C.3       1 UNL1        0.0000
     11 N1          0.9540    0.5459   -3.9756 N.4       1 UNL1        0.0000
     12 N2          0.3934   -3.3136    3.8335 N.4       1 UNL1        0.0000
     13 H1         -0.0472    2.3276   -4.5244 H         1 UNL1        0.0000
     14 H2          0.7882    1.4733   -5.8707 H         1 UNL1        0.0000
     15 H3         -0.7487    0.8154   -5.2032 H         1 UNL1        0.0000
     16 H4          2.1354    2.1315   -3.2219 H         1 UNL1        0.0000
     17 H5          2.8573    0.4913   -3.0518 H         1 UNL1        0.0000
     18 H6          2.8112    1.2919   -4.6635 H         1 UNL1        0.0000
     19 H7          2.0335   -3.6793    5.1197 H         1 UNL1        0.0000
     20 H8          0.4772   -4.4241    5.6332 H         1 UNL1        0.0000
     21 H9          1.4003   -5.1264    4.2565 H         1 UNL1        0.0000
     22 H10         0.7477   -1.4942    4.8543 H         1 UNL1        0.0000
     23 H11        -0.7242   -1.5164    3.8183 H         1 UNL1        0.0000
     24 H12        -0.7143   -2.3986    5.3874 H         1 UNL1        0.0000
     25 H13        -0.6748   -1.4293   -0.7856 H         1 UNL1        0.0000
     26 H14         0.0000    0.0000    0.0000 H         1 UNL1        0.0000
     27 H15         1.3347   -2.7573   -0.1231 H         1 UNL1        0.0000
     28 H16         2.0404   -1.3279    0.6346 H         1 UNL1        0.0000
     29 H17         1.9586   -0.0577   -1.5483 H         1 UNL1        0.0000
     30 H18         1.3195   -1.5098   -2.3189 H         1 UNL1        0.0000
     31 H19        -0.6013   -2.6516    1.4510 H         1 UNL1        0.0000
     32 H20         0.0692   -1.1990    2.1937 H         1 UNL1        0.0000
     33 H21        -0.7364   -0.2217   -3.0323 H         1 UNL1        0.0000
     34 H22        -0.0444    1.2514   -2.2899 H         1 UNL1        0.0000
     35 H23         1.4483   -3.9539    2.1561 H         1 UNL1        0.0000
     36 H24         2.0846   -2.4817    2.9483 H         1 UNL1        0.0000
     37 H25         1.1448   -0.3628   -4.4322 H         1 UNL1        0.0000
     38 H26        -0.4461   -3.8431    3.5409 H         1 UNL1        0.0000
@<TRIPOS>BOND
     1    1   11 1
     2    2   11 1
     3    3   12 1
     4    4   12 1
     5    5    6 1
     6    5    7 1
     7    6    8 1
     8    7    9 1
     9    8   10 1
    10    9   11 1
    11   10   12 1
    12    1   13 1
    13    1   14 1
    14    1   15 1
    15    2   16 1
    16    2   17 1
    17    2   18 1
    18    3   19 1
    19    3   20 1
    20    3   21 1
    21    4   22 1
    22    4   23 1
    23    4   24 1
    24    5   25 1
    25    5   26 1
    26    6   27 1
    27    6   28 1
    28    7   29 1
    29    7   30 1
    30    8   31 1
    31    8   32 1
    32    9   33 1
    33    9   34 1
    34   10   35 1
    35   10   36 1
    36   11   37 1
    37   12   38 1
