@<TRIPOS>MOLECULE
*****
   44    43     0     0     0
SMALL
USER_CHARGES

@<TRIPOS>ATOM
      1 C1          2.2801    1.2524   -3.6597 C.3       1 UNL1        0.5030
      2 C2          1.2753   -0.7630   -4.7111 C.3       1 UNL1        0.5030
      3 C3          0.1522    1.4432   -4.9292 C.3       1 UNL1        0.5030
      4 C4         -0.0343   -2.0280    4.5559 C.3       1 UNL1        0.5030
      5 C5         -0.8742   -4.1028    3.4760 C.3       1 UNL1        0.5030
      6 C6          1.2192   -4.1584    4.8142 C.3       1 UNL1        0.5030
      7 C7          0.2643   -0.9249   -0.5272 C.3       1 UNL1        0.0000
      8 C8          1.0909   -1.8221    0.3955 C.3       1 UNL1        0.0000
      9 C9          1.0311   -0.5840   -1.8058 C.3       1 UNL1        0.0000
     10 C10         0.3372   -2.1355    1.6888 C.3       1 UNL1        0.0000
     11 C11         0.1892    0.2791   -2.7337 C.3       1 UNL1        0.5030
     12 C12         1.1794   -2.9986    2.6164 C.3       1 UNL1        0.5030
     13 N1          0.9540    0.5459   -3.9756 N.4       1 UNL1       -1.0120
     14 N2          0.3934   -3.3136    3.8335 N.4       1 UNL1       -1.0120
     15 H1          2.0471    2.1819   -3.1371 H         1 UNL1        0.0000
     16 H2          2.8722    0.5856   -3.0299 H         1 UNL1        0.0000
     17 H3          2.7867    1.4507   -4.6062 H         1 UNL1        0.0000
     18 H4          0.3302   -1.2617   -4.9336 H         1 UNL1        0.0000
     19 H5          1.8103   -0.5084   -5.6280 H         1 UNL1        0.0000
     20 H6          1.8952   -1.3733   -4.0515 H         1 UNL1        0.0000
     21 H7         -0.7893    0.9375   -5.1511 H         1 UNL1        0.0000
     22 H8         -0.0229    2.3951   -4.4243 H         1 UNL1        0.0000
     23 H9          0.7456    1.5826   -5.8349 H         1 UNL1        0.0000
     24 H10         0.8695   -1.4703    4.8081 H         1 UNL1        0.0000
     25 H11        -0.6703   -1.4583    3.8758 H         1 UNL1        0.0000
     26 H12        -0.5812   -2.3165    5.4556 H         1 UNL1        0.0000
     27 H13        -0.5658   -5.0155    2.9628 H         1 UNL1        0.0000
     28 H14        -1.3979   -4.3330    4.4058 H         1 UNL1        0.0000
     29 H15        -1.4864   -3.4749    2.8258 H         1 UNL1        0.0000
     30 H16         1.5210   -5.0709    4.2969 H         1 UNL1        0.0000
     31 H17         2.0891   -3.5697    5.1119 H         1 UNL1        0.0000
     32 H18         0.5863   -4.3859    5.6742 H         1 UNL1        0.0000
     33 H19        -0.6748   -1.4293   -0.7856 H         1 UNL1        0.0000
     34 H20         0.0000    0.0000    0.0000 H         1 UNL1        0.0000
     35 H21         1.3347   -2.7573   -0.1231 H         1 UNL1        0.0000
     36 H22         2.0404   -1.3279    0.6346 H         1 UNL1        0.0000
     37 H23         1.9586   -0.0577   -1.5483 H         1 UNL1        0.0000
     38 H24         1.3195   -1.5098   -2.3189 H         1 UNL1        0.0000
     39 H25        -0.6013   -2.6516    1.4510 H         1 UNL1        0.0000
     40 H26         0.0692   -1.1990    2.1937 H         1 UNL1        0.0000
     41 H27        -0.7364   -0.2217   -3.0323 H         1 UNL1        0.0000
     42 H28        -0.0444    1.2514   -2.2899 H         1 UNL1        0.0000
     43 H29         1.4483   -3.9539    2.1561 H         1 UNL1        0.0000
     44 H30         2.0846   -2.4817    2.9483 H         1 UNL1        0.0000
@<TRIPOS>BOND
     1    1   13 1
     2    2   13 1
     3    3   13 1
     4    4   14 1
     5    5   14 1
     6    6   14 1
     7    7    8 1
     8    7    9 1
     9    8   10 1
    10    9   11 1
    11   10   12 1
    12   11   13 1
    13   12   14 1
    14    1   15 1
    15    1   16 1
    16    1   17 1
    17    2   18 1
    18    2   19 1
    19    2   20 1
    20    3   21 1
    21    3   22 1
    22    3   23 1
    23    4   24 1
    24    4   25 1
    25    4   26 1
    26    5   27 1
    27    5   28 1
    28    5   29 1
    29    6   30 1
    30    6   31 1
    31    6   32 1
    32    7   33 1
    33    7   34 1
    34    8   35 1
    35    8   36 1
    36    9   37 1
    37    9   38 1
    38   10   39 1
    39   10   40 1
    40   11   41 1
    41   11   42 1
    42   12   43 1
    43   12   44 1
