@<TRIPOS>MOLECULE
*****
   40    39     0     0     0
SMALL
NO_CHARGES

@<TRIPOS>ATOM
      1 C1          2.2723   -3.5982   -2.0355 C.3       1 UNL1        0.0000
      2 C2          1.8564   -1.0763   -2.0826 C.3       1 UNL1        0.0000
      3 C3         -0.7063    3.8325   -2.3613 C.3       1 UNL1        0.0000
      4 C4         -2.8321    2.6328   -2.8290 C.3       1 UNL1        0.0000
      5 C5         -2.2942    3.3507   -0.5113 C.3       1 UNL1        0.0000
      6 C6          0.4786   -0.3877    1.2232 C.3       1 UNL1        0.0000
      7 C7          0.2254    0.9914    0.6050 C.3       1 UNL1        0.0000
      8 C8          1.7587   -1.0566    0.7167 C.3       1 UNL1        0.0000
      9 C9         -1.1307    1.1001   -0.0994 C.3       1 UNL1        0.0000
     10 C10         1.4492   -2.3991    0.0669 C.3       1 UNL1        0.0000
     11 C11        -1.0169    1.4982   -1.5666 C.3       1 UNL1        0.0000
     12 N1          1.8570   -2.3580   -1.3397 N.3       1 UNL1        0.0000
     13 N2         -1.6941    2.7936   -1.8104 N.4       1 UNL1        0.0000
     14 H1          2.2051   -4.4246   -1.3258 H         1 UNL1        0.0000
     15 H2          3.2994   -3.4678   -2.3811 H         1 UNL1        0.0000
     16 H3          1.5988   -3.7577   -2.8794 H         1 UNL1        0.0000
     17 H4          1.5232   -0.2899   -1.4031 H         1 UNL1        0.0000
     18 H5          1.1726   -1.1723   -2.9279 H         1 UNL1        0.0000
     19 H6          2.8730   -0.8824   -2.4292 H         1 UNL1        0.0000
     20 H7          0.1007    3.9439   -1.6348 H         1 UNL1        0.0000
     21 H8         -0.3274    3.4604   -3.3151 H         1 UNL1        0.0000
     22 H9         -1.2477    4.7712   -2.4934 H         1 UNL1        0.0000
     23 H10        -3.5318    1.8940   -2.4341 H         1 UNL1        0.0000
     24 H11        -3.3136    3.6053   -2.9483 H         1 UNL1        0.0000
     25 H12        -2.3932    2.2941   -3.7695 H         1 UNL1        0.0000
     26 H13        -2.9955    2.6099   -0.1229 H         1 UNL1        0.0000
     27 H14        -1.4746    3.5206    0.1894 H         1 UNL1        0.0000
     28 H15        -2.8044    4.2852   -0.7527 H         1 UNL1        0.0000
     29 H16         0.5447   -0.2663    2.3116 H         1 UNL1        0.0000
     30 H17        -0.3816   -1.0405    1.0307 H         1 UNL1        0.0000
     31 H18         1.0362    1.2252   -0.0946 H         1 UNL1        0.0000
     32 H19         0.2728    1.7380    1.4075 H         1 UNL1        0.0000
     33 H20         2.2602   -0.4043   -0.0085 H         1 UNL1        0.0000
     34 H21         2.4559   -1.1955    1.5532 H         1 UNL1        0.0000
     35 H22        -1.6708    0.1493   -0.0239 H         1 UNL1        0.0000
     36 H23        -1.7408    1.8542    0.4125 H         1 UNL1        0.0000
     37 H24         0.3792   -2.6246    0.0872 H         1 UNL1        0.0000
     38 H25         2.0023   -3.2151    0.5409 H         1 UNL1        0.0000
     39 H26         0.0301    1.6356   -1.8522 H         1 UNL1        0.0000
     40 H27        -1.4797    0.7631   -2.2317 H         1 UNL1        0.0000
@<TRIPOS>BOND
     1    1   12 1
     2    2   12 1
     3    3   13 1
     4    4   13 1
     5    5   13 1
     6    6    7 1
     7    6    8 1
     8    7    9 1
     9    8   10 1
    10    9   11 1
    11   10   12 1
    12   11   13 1
    13    1   14 1
    14    1   15 1
    15    1   16 1
    16    2   17 1
    17    2   18 1
    18    2   19 1
    19    3   20 1
    20    3   21 1
    21    3   22 1
    22    4   23 1
    23    4   24 1
    24    4   25 1
    25    5   26 1
    26    5   27 1
    27    5   28 1
    28    6   29 1
    29    6   30 1
    30    7   31 1
    31    7   32 1
    32    8   33 1
    33    8   34 1
    34    9   35 1
    35    9   36 1
    36   10   37 1
    37   10   38 1
    38   11   39 1
    39   11   40 1
