@<TRIPOS>MOLECULE
*****
   38    37     0     0     0
SMALL
USER_CHARGES

@<TRIPOS>ATOM
      1 C1          0.5323   -0.2949   -0.9129 C.3       1 UNL1        0.0000
      2 C2          0.3978   -1.8126   -1.0737 C.3       1 UNL1        0.0000
      3 C3         -0.0317    0.4933   -2.0972 C.3       1 UNL1        0.0000
      4 C4          0.9854   -2.5999    0.1006 C.3       1 UNL1        0.0000
      5 C5          0.1066    2.0021   -1.8748 C.3       1 UNL1        0.0000
      6 C6          0.7970   -4.1154   -0.0337 C.3       1 UNL1        0.0000
      7 C7         -0.4307    2.7903   -3.0729 C.3       1 UNL1        0.0000
      8 C8          1.3157   -4.8977    1.1772 C.3       1 UNL1        0.0000
      9 C9         -0.3077    4.3002   -2.9093 C.3       1 UNL1        0.5030
     10 C10         1.1390   -6.4057    1.0408 C.3       1 UNL1        0.5030
     11 N1         -0.8353    5.0014   -4.1033 N.4       1 UNL1       -0.8530
     12 N2         -0.2883   -6.7481    0.8368 N.4       1 UNL1       -0.8530
     13 H1          1.5867   -0.0330   -0.7616 H         1 UNL1        0.0000
     14 H2          0.0000    0.0000    0.0000 H         1 UNL1        0.0000
     15 H3         -0.6684   -2.0527   -1.1691 H         1 UNL1        0.0000
     16 H4          0.8774   -2.1172   -2.0109 H         1 UNL1        0.0000
     17 H5          0.4954    0.2177   -3.0174 H         1 UNL1        0.0000
     18 H6         -1.0890    0.2384   -2.2380 H         1 UNL1        0.0000
     19 H7          2.0537   -2.3801    0.2070 H         1 UNL1        0.0000
     20 H8          0.4999   -2.2760    1.0293 H         1 UNL1        0.0000
     21 H9         -0.4418    2.2912   -0.9701 H         1 UNL1        0.0000
     22 H10         1.1622    2.2437   -1.7069 H         1 UNL1        0.0000
     23 H11         1.2933   -4.4588   -0.9486 H         1 UNL1        0.0000
     24 H12        -0.2742   -4.3165   -0.1585 H         1 UNL1        0.0000
     25 H13        -1.4915    2.5483   -3.2123 H         1 UNL1        0.0000
     26 H14         0.0880    2.4719   -3.9858 H         1 UNL1        0.0000
     27 H15         0.7745   -4.5704    2.0733 H         1 UNL1        0.0000
     28 H16         2.3751   -4.6712    1.3454 H         1 UNL1        0.0000
     29 H17         0.7311    4.6187   -2.7817 H         1 UNL1        0.0000
     30 H18        -0.8996    4.6484   -2.0576 H         1 UNL1        0.0000
     31 H19         1.6778   -6.7829    0.1665 H         1 UNL1        0.0000
     32 H20         1.4747   -6.9437    1.9324 H         1 UNL1        0.0000
     33 H21        -0.3443    4.7026   -4.9534 H         1 UNL1        0.4500
     34 H22        -0.7203    6.0175   -4.0142 H         1 UNL1        0.4500
     35 H23        -1.8349    4.8079   -4.2327 H         1 UNL1        0.4500
     36 H24        -0.4932   -6.8961   -0.1577 H         1 UNL1        0.4500
     37 H25        -0.8991   -5.9960    1.1754 H         1 UNL1        0.4500
     38 H26        -0.5370   -7.6068    1.3407 H         1 UNL1        0.4500
@<TRIPOS>BOND
     1    1    2 1
     2    1    3 1
     3    2    4 1
     4    3    5 1
     5    4    6 1
     6    5    7 1
     7    6    8 1
     8    7    9 1
     9    8   10 1
    10    9   11 1
    11   10   12 1
    12    1   13 1
    13    1   14 1
    14    2   15 1
    15    2   16 1
    16    3   17 1
    17    3   18 1
    18    4   19 1
    19    4   20 1
    20    5   21 1
    21    5   22 1
    22    6   23 1
    23    6   24 1
    24    7   25 1
    25    7   26 1
    26    8   27 1
    27    8   28 1
    28    9   29 1
    29    9   30 1
    30   10   31 1
    31   10   32 1
    32   11   33 1
    33   11   34 1
    34   11   35 1
    35   12   36 1
    36   12   37 1
    37   12   38 1
