@<TRIPOS>MOLECULE
*****
   44    43     0     0     0
SMALL
USER_CHARGES

@<TRIPOS>ATOM
      1 C1          1.3552   -0.8513   -0.4121 C.3       1 UNL1        0.0000
      2 C2          0.1816   -0.1932    0.3169 C.3       1 UNL1        0.0000
      3 C3          1.2406   -0.7783   -1.9381 C.3       1 UNL1        0.0000
      4 C4          0.3618   -0.2665    1.8350 C.3       1 UNL1        0.0000
      5 C5          2.3770   -1.5022   -2.6652 C.3       1 UNL1        0.0000
      6 C6         -0.7932    0.4198    2.5663 C.3       1 UNL1        0.0000
      7 C7          2.2296   -1.4795   -4.1909 C.3       1 UNL1        0.0000
      8 C8         -0.6299    0.3173    4.0847 C.3       1 UNL1        0.0000
      9 C9          3.3796   -2.1824   -4.9193 C.3       1 UNL1        0.0000
     10 C10        -1.8028    0.9788    4.8140 C.3       1 UNL1        0.0000
     11 C11         3.2404   -2.1512   -6.4371 C.3       1 UNL1        0.5030
     12 C12        -1.6969    0.8964    6.3317 C.3       1 UNL1        0.5030
     13 N1          3.2578   -0.7558   -6.9352 N.4       1 UNL1       -0.8530
     14 N2         -1.7075   -0.5154    6.7817 N.4       1 UNL1       -0.8530
     15 H1          2.2970   -0.3897   -0.0913 H         1 UNL1        0.0000
     16 H2          1.4082   -1.9086   -0.1240 H         1 UNL1        0.0000
     17 H3         -0.7533   -0.6916    0.0336 H         1 UNL1        0.0000
     18 H4          0.0945    0.8572    0.0173 H         1 UNL1        0.0000
     19 H5          1.2051    0.2733   -2.2448 H         1 UNL1        0.0000
     20 H6          0.2835   -1.2276   -2.2305 H         1 UNL1        0.0000
     21 H7          0.4224   -1.3160    2.1480 H         1 UNL1        0.0000
     22 H8          1.3092    0.2100    2.1153 H         1 UNL1        0.0000
     23 H9          3.3423   -1.0609   -2.3922 H         1 UNL1        0.0000
     24 H10         2.4023   -2.5496   -2.3400 H         1 UNL1        0.0000
     25 H11        -0.8382    1.4754    2.2718 H         1 UNL1        0.0000
     26 H12        -1.7429   -0.0404    2.2673 H         1 UNL1        0.0000
     27 H13         1.2850   -1.9735   -4.4502 H         1 UNL1        0.0000
     28 H14         2.1465   -0.4395   -4.5272 H         1 UNL1        0.0000
     29 H15         0.3082    0.7991    4.3856 H         1 UNL1        0.0000
     30 H16        -0.5579   -0.7393    4.3666 H         1 UNL1        0.0000
     31 H17         3.4167   -3.2315   -4.6018 H         1 UNL1        0.0000
     32 H18         4.3368   -1.7303   -4.6345 H         1 UNL1        0.0000
     33 H19        -1.8458    2.0383    4.5327 H         1 UNL1        0.0000
     34 H20        -2.7455    0.5262    4.4820 H         1 UNL1        0.0000
     35 H21         4.0808   -2.6631   -6.9152 H         1 UNL1        0.0000
     36 H22         2.3029   -2.6021   -6.7754 H         1 UNL1        0.0000
     37 H23        -2.5543    1.3808    6.8081 H         1 UNL1        0.0000
     38 H24        -0.7729    1.3468    6.7064 H         1 UNL1        0.0000
     39 H25         3.5636   -0.1063   -6.2020 H         1 UNL1        0.4500
     40 H26         2.3237   -0.4637   -7.2445 H         1 UNL1        0.4500
     41 H27         3.8982   -0.6563   -7.7310 H         1 UNL1        0.4500
     42 H28        -2.2725   -0.6275    7.6310 H         1 UNL1        0.4500
     43 H29        -0.7572   -0.8423    6.9906 H         1 UNL1        0.4500
     44 H30        -2.0999   -1.1297    6.0592 H         1 UNL1        0.4500
@<TRIPOS>BOND
     1    1    2 1
     2    1    3 1
     3    2    4 1
     4    3    5 1
     5    4    6 1
     6    5    7 1
     7    6    8 1
     8    7    9 1
     9    8   10 1
    10    9   11 1
    11   10   12 1
    12   11   13 1
    13   12   14 1
    14    1   15 1
    15    1   16 1
    16    2   17 1
    17    2   18 1
    18    3   19 1
    19    3   20 1
    20    4   21 1
    21    4   22 1
    22    5   23 1
    23    5   24 1
    24    6   25 1
    25    6   26 1
    26    7   27 1
    27    7   28 1
    28    8   29 1
    29    8   30 1
    30    9   31 1
    31    9   32 1
    32   10   33 1
    33   10   34 1
    34   11   35 1
    35   11   36 1
    36   12   37 1
    37   12   38 1
    38   13   39 1
    39   13   40 1
    40   13   41 1
    41   14   42 1
    42   14   43 1
    43   14   44 1
