@<TRIPOS>MOLECULE
*****
   45    45     0     0     0
SMALL
USER_CHARGES

@<TRIPOS>ATOM
      1 C1         -0.6896   -0.8500   -0.0609 C.3       1 UNL1        0.0000
      2 C2          1.0827   -2.5509   -0.6161 C.3       1 UNL1        0.0000
      3 C3         -1.2510   -0.9735   -1.4726 C.3       1 UNL1        0.5030
      4 C4          0.5223   -2.6748   -2.0281 C.3       1 UNL1        0.5030
      5 C5          0.0085   -2.1348    0.3916 C.3       1 UNL1        0.0000
      6 C6          0.8317   -0.2626   -2.7141 C.3       1 UNL1        0.5030
      7 C7         -0.8643   -1.6680   -3.8232 C.3       1 UNL1        0.5030
      8 C8         -2.0120   -1.0594    5.0849 C.3       1 UNL1        0.5030
      9 C9         -1.5437   -3.4984    5.1792 C.3       1 UNL1        0.5030
     10 C10        -0.3307   -1.9407    6.6888 C.3       1 UNL1        0.5030
     11 C11         0.6099   -1.9630    1.7851 C.3       1 UNL1        0.0000
     12 C12        -0.4590   -2.0799    2.8674 C.3       1 UNL1        0.0000
     13 C13         0.1569   -1.9417    4.2517 C.3       1 UNL1        0.5030
     14 N1         -0.1754   -1.3885   -2.4809 N.4       1 UNL1       -1.0120
     15 N2         -0.9043   -2.1057    5.2741 N.4       1 UNL1       -1.0120
     16 H1         -0.0041    0.0031    0.0024 H         1 UNL1        0.0000
     17 H2         -1.5157   -0.6251    0.6251 H         1 UNL1        0.0000
     18 H3          1.5017   -3.5207   -0.3203 H         1 UNL1        0.0000
     19 H4          1.9197   -1.8430   -0.6001 H         1 UNL1        0.0000
     20 H5         -2.0343   -1.7407   -1.5016 H         1 UNL1        0.0000
     21 H6         -1.6783   -0.0234   -1.8126 H         1 UNL1        0.0000
     22 H7          1.3163   -2.8956   -2.7505 H         1 UNL1        0.0000
     23 H8         -0.2230   -3.4783   -2.0695 H         1 UNL1        0.0000
     24 H9         -0.7421   -2.9349    0.4461 H         1 UNL1        0.0000
     25 H10         1.5679   -0.6177   -3.4376 H         1 UNL1        0.0000
     26 H11         0.2853    0.5997   -3.1009 H         1 UNL1        0.0000
     27 H12         1.3024   -0.0318   -1.7565 H         1 UNL1        0.0000
     28 H13        -0.0945   -1.9632   -4.5385 H         1 UNL1        0.0000
     29 H14        -1.5852   -2.4729   -3.6676 H         1 UNL1        0.0000
     30 H15        -1.3631   -0.7501   -4.1402 H         1 UNL1        0.0000
     31 H16        -1.5533   -0.0713    5.1531 H         1 UNL1        0.0000
     32 H17        -2.4574   -1.2185    4.1010 H         1 UNL1        0.0000
     33 H18        -2.7485   -1.2056    5.8774 H         1 UNL1        0.0000
     34 H19        -0.7531   -4.2387    5.3143 H         1 UNL1        0.0000
     35 H20        -2.2936   -3.5763    5.9688 H         1 UNL1        0.0000
     36 H21        -2.0018   -3.5891    4.1925 H         1 UNL1        0.0000
     37 H22         0.4561   -2.6860    6.8191 H         1 UNL1        0.0000
     38 H23         0.0698   -0.9285    6.7710 H         1 UNL1        0.0000
     39 H24        -1.1437   -2.1001    7.3997 H         1 UNL1        0.0000
     40 H25         1.3808   -2.7252    1.9327 H         1 UNL1        0.0000
     41 H26         1.0978   -0.9855    1.8406 H         1 UNL1        0.0000
     42 H27        -1.2208   -1.3043    2.7200 H         1 UNL1        0.0000
     43 H28        -0.9672   -3.0485    2.7816 H         1 UNL1        0.0000
     44 H29         0.9069   -2.7140    4.4459 H         1 UNL1        0.0000
     45 H30         0.5975   -0.9526    4.4076 H         1 UNL1        0.0000
@<TRIPOS>BOND
     1    1    3 1
     2    1    5 1
     3    2    4 1
     4    2    5 1
     5    3   14 1
     6    4   14 1
     7    5   11 1
     8    6   14 1
     9    7   14 1
    10    8   15 1
    11    9   15 1
    12   10   15 1
    13   11   12 1
    14   12   13 1
    15   13   15 1
    16    1   16 1
    17    1   17 1
    18    2   18 1
    19    2   19 1
    20    3   20 1
    21    3   21 1
    22    4   22 1
    23    4   23 1
    24    5   24 1
    25    6   25 1
    26    6   26 1
    27    6   27 1
    28    7   28 1
    29    7   29 1
    30    7   30 1
    31    8   31 1
    32    8   32 1
    33    8   33 1
    34    9   34 1
    35    9   35 1
    36    9   36 1
    37   10   37 1
    38   10   38 1
    39   10   39 1
    40   11   40 1
    41   11   41 1
    42   12   42 1
    43   12   43 1
    44   13   44 1
    45   13   45 1
