@<TRIPOS>MOLECULE
*****
   23    22     0     0     0
SMALL
NO_CHARGES

@<TRIPOS>ATOM
      1 C1         -0.3143    0.0860    0.4213 C.3       1 UNL1        0.0000
      2 C2         -0.2585   -1.2284   -0.3584 C.3       1 UNL1        0.0000
      3 C3          0.6472    1.1221   -0.1630 C.3       1 UNL1        0.0000
      4 C4         -1.1911   -2.2646    0.2512 C.3       1 UNL1        0.0000
      5 C5          0.5593    2.4377    0.5961 C.3       1 UNL1        0.0000
      6 N1         -1.1385   -3.5036   -0.5615 N.4       1 UNL1        0.0000
      7 N2          1.4726    3.4228   -0.0315 N.4       1 UNL1        0.0000
      8 H1         -0.0599   -0.0992    1.4721 H         1 UNL1        0.0000
      9 H2         -1.3372    0.4817    0.4011 H         1 UNL1        0.0000
     10 H3         -0.5365   -1.0472   -1.4041 H         1 UNL1        0.0000
     11 H4          0.7701   -1.6102   -0.3616 H         1 UNL1        0.0000
     12 H5          1.6733    0.7360   -0.1204 H         1 UNL1        0.0000
     13 H6          0.4103    1.2871   -1.2215 H         1 UNL1        0.0000
     14 H7         -2.2324   -1.9292    0.2513 H         1 UNL1        0.0000
     15 H8         -0.8919   -2.5384    1.2673 H         1 UNL1        0.0000
     16 H9         -0.4462    2.8670    0.5571 H         1 UNL1        0.0000
     17 H10         0.8745    2.3315    1.6383 H         1 UNL1        0.0000
     18 H11        -0.8429   -4.2701    0.0216 H         1 UNL1        0.0000
     19 H12        -0.4827   -3.3771   -1.3157 H         1 UNL1        0.0000
     20 H13        -2.0546   -3.6938   -0.9348 H         1 UNL1        0.0000
     21 H14         2.4246    3.3299    0.3394 H         1 UNL1        0.0000
     22 H15         1.1567    4.3824    0.1475 H         1 UNL1        0.0000
     23 H16         1.5154    3.2891   -1.0478 H         1 UNL1        0.0000
@<TRIPOS>BOND
     1    1    2 1
     2    1    3 1
     3    2    4 1
     4    3    5 1
     5    4    6 1
     6    5    7 1
     7    1    8 1
     8    1    9 1
     9    2   10 1
    10    2   11 1
    11    3   12 1
    12    3   13 1
    13    4   14 1
    14    4   15 1
    15    5   16 1
    16    5   17 1
    17    6   18 1
    18    6   19 1
    19    6   20 1
    20    7   21 1
    21    7   22 1
    22    7   23 1
