@<TRIPOS>MOLECULE
*****
   23    22     0     0     0
SMALL
USER_CHARGES

@<TRIPOS>ATOM
      1 C1         -0.9107   -0.4826    0.3725 C.3       1 UNL1        0.0000
      2 C2         -1.1013   -1.8428   -0.3049 C.3       1 UNL1        0.0000
      3 C3         -0.8121   -0.6297    1.8925 C.3       1 UNL1        0.0000
      4 C4         -1.1948   -1.7559   -1.8233 C.3       1 UNL1        0.5030
      5 C5         -0.6587    0.7271    2.5638 C.3       1 UNL1        0.5030
      6 N1          0.0357   -1.1558   -2.3903 N.4       1 UNL1       -0.8530
      7 N2         -0.5218    0.5323    4.0273 N.4       1 UNL1       -0.8530
      8 H1         -1.7528    0.1737    0.1217 H         1 UNL1        0.0000
      9 H2          0.0000    0.0000    0.0000 H         1 UNL1        0.0000
     10 H3         -2.0262   -2.3003    0.0675 H         1 UNL1        0.0000
     11 H4         -0.2812   -2.5139   -0.0209 H         1 UNL1        0.0000
     12 H5          0.0437   -1.2683    2.1447 H         1 UNL1        0.0000
     13 H6         -1.7104   -1.1323    2.2723 H         1 UNL1        0.0000
     14 H7         -2.0353   -1.1368   -2.1507 H         1 UNL1        0.0000
     15 H8         -1.2862   -2.7528   -2.2646 H         1 UNL1        0.0000
     16 H9          0.2407    1.2516    2.2281 H         1 UNL1        0.0000
     17 H10        -1.5356    1.3627    2.4087 H         1 UNL1        0.0000
     18 H11         0.8678   -1.4647   -1.8752 H         1 UNL1        0.4500
     19 H12         0.0001   -0.1311   -2.3450 H         1 UNL1        0.4500
     20 H13         0.1570   -1.4234   -3.3737 H         1 UNL1        0.4500
     21 H14        -1.2440   -0.1037    4.3828 H         1 UNL1        0.4500
     22 H15        -0.6135    1.4241    4.5265 H         1 UNL1        0.4500
     23 H16         0.3936    0.1325    4.2610 H         1 UNL1        0.4500
@<TRIPOS>BOND
     1    1    2 1
     2    1    3 1
     3    2    4 1
     4    3    5 1
     5    4    6 1
     6    5    7 1
     7    1    8 1
     8    1    9 1
     9    2   10 1
    10    2   11 1
    11    3   12 1
    12    3   13 1
    13    4   14 1
    14    4   15 1
    15    5   16 1
    16    5   17 1
    17    6   18 1
    18    6   19 1
    19    6   20 1
    20    7   21 1
    21    7   22 1
    22    7   23 1
