@<TRIPOS>MOLECULE
*****
   32    31     0     0     0
SMALL
USER_CHARGES

@<TRIPOS>ATOM
      1 C1          0.9424    0.5529   -0.0950 C.3       1 UNL1        0.0000
      2 C2          1.0538    1.1354   -1.5059 C.3       1 UNL1        0.0000
      3 C3          1.0000    1.6548    0.9652 C.3       1 UNL1        0.0000
      4 C4          0.9634    0.0386   -2.5696 C.3       1 UNL1        0.0000
      5 C5          0.9058    1.1232    2.3979 C.3       1 UNL1        0.0000
      6 C6          1.0342    0.6285   -3.9810 C.3       1 UNL1        0.0000
      7 C7          0.8897    2.2286    3.4443 C.3       1 UNL1        0.5030
      8 C8          0.8729   -0.4129   -5.0815 C.3       1 UNL1        0.5030
      9 N1          0.7472    1.6180    4.7894 N.4       1 UNL1       -0.8530
     10 N2          1.9673   -1.4102   -5.0228 N.4       1 UNL1       -0.8530
     11 H1          1.7570   -0.1630    0.0622 H         1 UNL1        0.0000
     12 H2          0.0000    0.0000    0.0000 H         1 UNL1        0.0000
     13 H3          2.0066    1.6691   -1.6088 H         1 UNL1        0.0000
     14 H4          0.2534    1.8682   -1.6647 H         1 UNL1        0.0000
     15 H5          0.1680    2.3515    0.8036 H         1 UNL1        0.0000
     16 H6          1.9241    2.2340    0.8484 H         1 UNL1        0.0000
     17 H7          1.7806   -0.6756   -2.4179 H         1 UNL1        0.0000
     18 H8          0.0229   -0.5124   -2.4489 H         1 UNL1        0.0000
     19 H9          1.7399    0.4371    2.5903 H         1 UNL1        0.0000
     20 H10        -0.0135    0.5298    2.4826 H         1 UNL1        0.0000
     21 H11         1.9842    1.1617   -4.1102 H         1 UNL1        0.0000
     22 H12         0.2368    1.3728   -4.0969 H         1 UNL1        0.0000
     23 H13         0.0406    2.9054    3.3127 H         1 UNL1        0.0000
     24 H14         1.8206    2.8014    3.4621 H         1 UNL1        0.0000
     25 H15         0.9302    0.0536   -6.0695 H         1 UNL1        0.0000
     26 H16        -0.0688   -0.9630   -4.9951 H         1 UNL1        0.0000
     27 H17         1.5150    0.9652    4.9787 H         1 UNL1        0.4500
     28 H18        -0.1346    1.0997    4.8643 H         1 UNL1        0.4500
     29 H19         0.7551    2.3368    5.5208 H         1 UNL1        0.4500
     30 H20         1.8907   -1.9925   -4.1814 H         1 UNL1        0.4500
     31 H21         2.8843   -0.9496   -5.0043 H         1 UNL1        0.4500
     32 H22         1.9437   -2.0318   -5.8391 H         1 UNL1        0.4500
@<TRIPOS>BOND
     1    1    2 1
     2    1    3 1
     3    2    4 1
     4    3    5 1
     5    4    6 1
     6    5    7 1
     7    6    8 1
     8    7    9 1
     9    8   10 1
    10    1   11 1
    11    1   12 1
    12    2   13 1
    13    2   14 1
    14    3   15 1
    15    3   16 1
    16    4   17 1
    17    4   18 1
    18    5   19 1
    19    5   20 1
    20    6   21 1
    21    6   22 1
    22    7   23 1
    23    7   24 1
    24    8   25 1
    25    8   26 1
    26    9   27 1
    27    9   28 1
    28    9   29 1
    29   10   30 1
    30   10   31 1
    31   10   32 1
