@<TRIPOS>MOLECULE
*****
   24    24     0     0     0
SMALL
NO_CHARGES

@<TRIPOS>ATOM
      1 C1          1.0239   -0.4612   -0.9701 C.3       1 UNL1        0.0000
      2 C2          0.8205   -1.1812    0.3657 C.3       1 UNL1        0.0000
      3 C3         -0.8205    1.1812   -0.3659 C.3       1 UNL1        0.0000
      4 C4         -1.0239    0.4613    0.9701 C.3       1 UNL1        0.0000
      5 C5          0.5865    1.0034   -0.9371 C.3       1 UNL1        0.0000
      6 C6         -0.5865   -1.0033    0.9371 C.3       1 UNL1        0.0000
      7 N1          1.5531    1.7851   -0.1121 N.4       1 UNL1        0.0000
      8 N2         -1.5531   -1.7851    0.1123 N.4       1 UNL1        0.0000
      9 H1          2.0774   -0.5381   -1.2661 H         1 UNL1        0.0000
     10 H2          0.4512   -0.9816   -1.7479 H         1 UNL1        0.0000
     11 H3          1.0495   -2.2467    0.2410 H         1 UNL1        0.0000
     12 H4          1.5464   -0.7978    1.0934 H         1 UNL1        0.0000
     13 H5         -1.5463    0.7974   -1.0935 H         1 UNL1        0.0000
     14 H6         -1.0497    2.2467   -0.2415 H         1 UNL1        0.0000
     15 H7         -0.4513    0.9815    1.7480 H         1 UNL1        0.0000
     16 H8         -2.0774    0.5382    1.2661 H         1 UNL1        0.0000
     17 H9          0.6444    1.4373   -1.9411 H         1 UNL1        0.0000
     18 H10        -0.6430   -1.4368    1.9414 H         1 UNL1        0.0000
     19 H11         1.7833    1.2789    0.7461 H         1 UNL1        0.0000
     20 H12         1.1538    2.6911    0.1446 H         1 UNL1        0.0000
     21 H13         2.4181    1.9490   -0.6325 H         1 UNL1        0.0000
     22 H14        -1.2679   -2.7657    0.0590 H         1 UNL1        0.0000
     23 H15        -1.5982   -1.4098   -0.8380 H         1 UNL1        0.0000
     24 H16        -2.4896   -1.7428    0.5212 H         1 UNL1        0.0000
@<TRIPOS>BOND
     1    1    2 1
     2    1    5 1
     3    2    6 1
     4    3    4 1
     5    3    5 1
     6    4    6 1
     7    5    7 1
     8    6    8 1
     9    1    9 1
    10    1   10 1
    11    2   11 1
    12    2   12 1
    13    3   13 1
    14    3   14 1
    15    4   15 1
    16    4   16 1
    17    5   17 1
    18    6   18 1
    19    7   19 1
    20    7   20 1
    21    7   21 1
    22    8   22 1
    23    8   23 1
    24    8   24 1
