@<TRIPOS>MOLECULE
*****
   29    31     0     0     0
SMALL
USER_CHARGES

@<TRIPOS>ATOM
      1 C1         -0.2432    1.7135   -0.8857 C.3       1 UNL1        0.0000
      2 C2         -1.8381    0.3724    0.5116 C.3       1 UNL1        0.0000
      3 C3          0.3160    1.1909    1.5035 C.3       1 UNL1        0.0000
      4 C4         -0.5660   -0.7327   -1.3493 C.3       1 UNL1        0.0000
      5 C5          1.5953    0.0885   -0.3539 C.3       1 UNL1        0.0000
      6 C6         -0.0051   -1.2569    1.0479 C.3       1 UNL1        0.0000
      7 C7         -1.2680    0.5648   -0.9054 C.3       1 UNL1        0.0000
      8 C8          0.8999    1.3885    0.0930 C.3       1 UNL1        0.0000
      9 C9         -0.7053    0.0390    1.4992 C.3       1 UNL1        0.0000
     10 C10         0.5702   -1.0585   -0.3649 C.3       1 UNL1        0.5030
     11 N1          1.2441   -2.3096   -0.7960 N.4       1 UNL1       -0.8530
     12 H1          0.1608    1.8718   -1.8932 H         1 UNL1        0.0000
     13 H2         -0.7350    2.6480   -0.5890 H         1 UNL1        0.0000
     14 H3         -2.3574    1.2839    0.8324 H         1 UNL1        0.0000
     15 H4         -2.5817   -0.4340    0.5092 H         1 UNL1        0.0000
     16 H5          1.1219    0.9737    2.2152 H         1 UNL1        0.0000
     17 H6         -0.1664    2.1164    1.8412 H         1 UNL1        0.0000
     18 H7         -1.2954   -1.5521   -1.3838 H         1 UNL1        0.0000
     19 H8         -0.1728   -0.6083   -2.3665 H         1 UNL1        0.0000
     20 H9          2.0303    0.2286   -1.3518 H         1 UNL1        0.0000
     21 H10         2.4234   -0.1389    0.3296 H         1 UNL1        0.0000
     22 H11         0.7920   -1.5104    1.7586 H         1 UNL1        0.0000
     23 H12        -0.7236   -2.0865    1.0604 H         1 UNL1        0.0000
     24 H13        -2.0792    0.8039   -1.6020 H         1 UNL1        0.0000
     25 H14         1.6239    2.2108    0.1036 H         1 UNL1        0.0000
     26 H15        -1.1179   -0.0943    2.5054 H         1 UNL1        0.0000
     27 H16         1.3461   -2.9594   -0.0099 H         1 UNL1        0.4500
     28 H17         2.1790   -2.1113   -1.1671 H         1 UNL1        0.4500
     29 H18         0.7049   -2.7810   -1.5296 H         1 UNL1        0.4500
@<TRIPOS>BOND
     1    1    7 1
     2    1    8 1
     3    2    7 1
     4    2    9 1
     5    3    8 1
     6    3    9 1
     7    4    7 1
     8    4   10 1
     9    5    8 1
    10    5   10 1
    11    6    9 1
    12    6   10 1
    13   10   11 1
    14    1   12 1
    15    1   13 1
    16    2   14 1
    17    2   15 1
    18    3   16 1
    19    3   17 1
    20    4   18 1
    21    4   19 1
    22    5   20 1
    23    5   21 1
    24    6   22 1
    25    6   23 1
    26    7   24 1
    27    8   25 1
    28    9   26 1
    29   11   27 1
    30   11   28 1
    31   11   29 1
