@<TRIPOS>MOLECULE
*****
   29    31     0     0     0
SMALL
NO_CHARGES

@<TRIPOS>ATOM
      1 C1         -0.2370    1.7120   -0.8898 C.3       1 UNL1        0.0000
      2 C2         -1.8382    0.3780    0.5068 C.3       1 UNL1        0.0000
      3 C3          0.3158    1.1932    1.5018 C.3       1 UNL1        0.0000
      4 C4         -0.5649   -0.7337   -1.3486 C.3       1 UNL1        0.0000
      5 C5          1.5957    0.0840   -0.3506 C.3       1 UNL1        0.0000
      6 C6         -0.0104   -1.2541    1.0504 C.3       1 UNL1        0.0000
      7 C7         -1.2647    0.5660   -0.9094 C.3       1 UNL1        0.0000
      8 C8          0.9033    1.3865    0.0920 C.3       1 UNL1        0.0000
      9 C9         -0.7084    0.0439    1.4977 C.3       1 UNL1        0.0000
     10 C10         0.5687   -1.0611   -0.3616 C.3       1 UNL1        0.0000
     11 N1          1.2402   -2.3146   -0.7887 N.4       1 UNL1        0.0000
     12 H1          0.1696    1.8666   -1.8968 H         1 UNL1        0.0000
     13 H2         -0.7268    2.6488   -0.5969 H         1 UNL1        0.0000
     14 H3         -2.3555    1.2917    0.8246 H         1 UNL1        0.0000
     15 H4         -2.5844   -0.4261    0.5049 H         1 UNL1        0.0000
     16 H5          1.1199    0.9754    2.2154 H         1 UNL1        0.0000
     17 H6         -0.1647    2.1207    1.8367 H         1 UNL1        0.0000
     18 H7         -1.2945   -1.5530   -1.3846 H         1 UNL1        0.0000
     19 H8         -0.1698   -0.6161   -2.3658 H         1 UNL1        0.0000
     20 H9          2.0356    0.2184   -1.3472 H         1 UNL1        0.0000
     21 H10         2.4232   -0.1461    0.3328 H         1 UNL1        0.0000
     22 H11         0.7844   -1.5116    1.7622 H         1 UNL1        0.0000
     23 H12        -0.7287   -2.0840    1.0633 H         1 UNL1        0.0000
     24 H13        -2.0738    0.8054   -1.6083 H         1 UNL1        0.0000
     25 H14         1.6293    2.2070    0.1021 H         1 UNL1        0.0000
     26 H15        -1.1236   -0.0864    2.5032 H         1 UNL1        0.0000
     27 H16         1.3392   -2.9632   -0.0010 H         1 UNL1        0.0000
     28 H17         2.1765   -2.1195   -1.1584 H         1 UNL1        0.0000
     29 H18         0.7015   -2.7864   -1.5224 H         1 UNL1        0.0000
@<TRIPOS>BOND
     1    1    7 1
     2    1    8 1
     3    2    7 1
     4    2    9 1
     5    3    8 1
     6    3    9 1
     7    4    7 1
     8    4   10 1
     9    5    8 1
    10    5   10 1
    11    6    9 1
    12    6   10 1
    13   10   11 1
    14    1   12 1
    15    1   13 1
    16    2   14 1
    17    2   15 1
    18    3   16 1
    19    3   17 1
    20    4   18 1
    21    4   19 1
    22    5   20 1
    23    5   21 1
    24    6   22 1
    25    6   23 1
    26    7   24 1
    27    8   25 1
    28    9   26 1
    29   11   27 1
    30   11   28 1
    31   11   29 1
