@<TRIPOS>MOLECULE
*****
   19    18     0     0     0
SMALL
NO_CHARGES

@<TRIPOS>ATOM
      1 C1         -4.7436   -2.7525    1.6691 C.2       1 UNL1        0.0000
      2 C2          0.2701   -1.0123    0.1654 C.3       1 UNL1        0.0000
      3 C3         -3.9882   -1.9478    2.7320 C.3       1 UNL1        0.0000
      4 C4         -0.3368   -1.5927    1.4328 C.3       1 UNL1        0.0000
      5 C5         -2.4658   -2.0522    2.7111 C.3       1 UNL1        0.0000
      6 C6         -1.8632   -1.5074    1.4131 C.3       1 UNL1        0.0000
      7 O1         -5.8329   -2.2280    1.2973 O.co2     1 UNL1        0.0000
      8 O2         -4.2107   -3.8355    1.3019 O.co2     1 UNL1        0.0000
      9 H1         -0.0237    0.0339    0.0332 H         1 UNL1        0.0000
     10 H2          1.3633   -1.0614    0.1958 H         1 UNL1        0.0000
     11 H3         -0.0710   -1.5740   -0.7098 H         1 UNL1        0.0000
     12 H4         -4.3476   -2.3095    3.7037 H         1 UNL1        0.0000
     13 H5         -4.2834   -0.8937    2.6581 H         1 UNL1        0.0000
     14 H6         -0.0239   -2.6383    1.5350 H         1 UNL1        0.0000
     15 H7          0.0557   -1.0499    2.3005 H         1 UNL1        0.0000
     16 H8         -2.1536   -3.0929    2.8587 H         1 UNL1        0.0000
     17 H9         -2.0664   -1.4801    3.5577 H         1 UNL1        0.0000
     18 H10        -2.2473   -2.0697    0.5542 H         1 UNL1        0.0000
     19 H11        -2.1699   -0.4632    1.2770 H         1 UNL1        0.0000
@<TRIPOS>BOND
     1    1    3 1
     2    1    7 1
     3    1    8 2
     4    2    4 1
     5    3    5 1
     6    4    6 1
     7    5    6 1
     8    2    9 1
     9    2   10 1
    10    2   11 1
    11    3   12 1
    12    3   13 1
    13    4   14 1
    14    4   15 1
    15    5   16 1
    16    5   17 1
    17    6   18 1
    18    6   19 1
