@<TRIPOS>MOLECULE
*****
   25    25     0     0     0
SMALL
NO_CHARGES

@<TRIPOS>ATOM
      1 C1          2.5537   -0.4608   -0.5445 C.2       1 UNL1        0.0000
      2 C2          1.6548   -0.1446   -1.4874 C.2       1 UNL1        0.0000
      3 C3          6.7977   -0.0324   -2.9053 C.2       1 UNL1        0.0000
      4 C4          0.2721    0.0838   -1.0609 C.2       1 UNL1        0.0000
      5 C5          5.7457   -0.8209   -2.6399 C.2       1 UNL1        0.0000
      6 C6          4.0025   -0.7091   -0.8571 C.3       1 UNL1        0.0000
      7 C7          1.9790   -0.0349   -2.9459 C.3       1 UNL1        0.0000
      8 C8          3.3361   -0.6546   -3.2969 C.3       1 UNL1        0.0000
      9 C9          4.4076   -0.2585   -2.2718 C.3       1 UNL1        0.0000
     10 C10         5.8423   -2.3168   -2.6941 C.3       1 UNL1        0.0000
     11 O1         -0.2830   -0.8995   -0.4955 O.co2     1 UNL1        0.0000
     12 O2         -0.1832    1.2341   -1.3146 O.co2     1 UNL1        0.0000
     13 H1          2.2575   -0.5507    0.4972 H         1 UNL1        0.0000
     14 H2          7.7632   -0.4497   -3.1710 H         1 UNL1        0.0000
     15 H3          6.7179    1.0488   -2.8630 H         1 UNL1        0.0000
     16 H4          4.6185   -0.1777   -0.1207 H         1 UNL1        0.0000
     17 H5          4.1991   -1.7804   -0.7196 H         1 UNL1        0.0000
     18 H6          1.2025   -0.5276   -3.5427 H         1 UNL1        0.0000
     19 H7          1.9774    1.0256   -3.2261 H         1 UNL1        0.0000
     20 H8          3.2383   -1.7486   -3.3300 H         1 UNL1        0.0000
     21 H9          3.6255   -0.3354   -4.3059 H         1 UNL1        0.0000
     22 H10         4.5009    0.8353   -2.2754 H         1 UNL1        0.0000
     23 H11         6.1312   -2.7145   -1.7158 H         1 UNL1        0.0000
     24 H12         4.8763   -2.7496   -2.9740 H         1 UNL1        0.0000
     25 H13         6.5842   -2.6563   -3.4247 H         1 UNL1        0.0000
@<TRIPOS>BOND
     1    1    2 2
     2    1    6 1
     3    2    4 1
     4    2    7 1
     5    3    5 2
     6    4   11 1
     7    4   12 2
     8    5    9 1
     9    5   10 1
    10    6    9 1
    11    7    8 1
    12    8    9 1
    13    1   13 1
    14    3   14 1
    15    3   15 1
    16    6   16 1
    17    6   17 1
    18    7   18 1
    19    7   19 1
    20    8   20 1
    21    8   21 1
    22    9   22 1
    23   10   23 1
    24   10   24 1
    25   10   25 1
