@<TRIPOS>MOLECULE
*****
   29    28     0     0     0
SMALL
NO_CHARGES

@<TRIPOS>ATOM
      1 C1         -0.6085    6.2195    3.4095 C.2       1 UNL1        0.0000
      2 C2         -0.1320    7.4309    3.7536 C.2       1 UNL1        0.0000
      3 C3          2.1695    2.9749    6.9066 C.2       1 UNL1        0.0000
      4 C4         -0.9291    8.7045    3.7477 C.3       1 UNL1        0.0000
      5 C5          1.2960    7.5907    4.2022 C.3       1 UNL1        0.0000
      6 C6         -0.1431    1.7472    4.0392 C.3       1 UNL1        0.0000
      7 C7          0.1341    4.9123    3.3941 C.3       1 UNL1        0.0000
      8 C8          0.9527    2.3568    6.2071 C.3       1 UNL1        0.0000
      9 C9          0.0078    4.1903    4.7393 C.3       1 UNL1        0.0000
     10 C10         0.6960    2.8080    4.7595 C.3       1 UNL1        0.0000
     11 O1          2.2968    2.6438    8.1204 O.co2     1 UNL1        0.0000
     12 O2          2.8845    3.7441    6.2071 O.co2     1 UNL1        0.0000
     13 H1         -1.6552    6.1426    3.1177 H         1 UNL1        0.0000
     14 H2         -1.4049    8.8543    4.7230 H         1 UNL1        0.0000
     15 H3         -1.7280    8.7145    3.0028 H         1 UNL1        0.0000
     16 H4         -0.2728    9.5584    3.5507 H         1 UNL1        0.0000
     17 H5          1.9754    7.7959    3.3682 H         1 UNL1        0.0000
     18 H6          1.6432    6.6773    4.6962 H         1 UNL1        0.0000
     19 H7          1.3793    8.4222    4.9097 H         1 UNL1        0.0000
     20 H8         -1.1197    1.6191    4.5152 H         1 UNL1        0.0000
     21 H9          0.3565    0.7727    4.0653 H         1 UNL1        0.0000
     22 H10        -0.3062    2.0153    2.9899 H         1 UNL1        0.0000
     23 H11         1.1856    5.1350    3.1794 H         1 UNL1        0.0000
     24 H12        -0.2073    4.2623    2.5828 H         1 UNL1        0.0000
     25 H13         1.0421    1.2631    6.2403 H         1 UNL1        0.0000
     26 H14         0.0880    2.6209    6.8302 H         1 UNL1        0.0000
     27 H15         0.4251    4.8212    5.5355 H         1 UNL1        0.0000
     28 H16        -1.0579    4.0671    4.9699 H         1 UNL1        0.0000
     29 H17         1.6565    2.8862    4.2347 H         1 UNL1        0.0000
@<TRIPOS>BOND
     1    1    2 2
     2    1    7 1
     3    2    4 1
     4    2    5 1
     5    3    8 1
     6    3   11 1
     7    3   12 2
     8    6   10 1
     9    7    9 1
    10    8   10 1
    11    9   10 1
    12    1   13 1
    13    4   14 1
    14    4   15 1
    15    4   16 1
    16    5   17 1
    17    5   18 1
    18    5   19 1
    19    6   20 1
    20    6   21 1
    21    6   22 1
    22    7   23 1
    23    7   24 1
    24    8   25 1
    25    8   26 1
    26    9   27 1
    27    9   28 1
    28   10   29 1
