@<TRIPOS>MOLECULE
*****
   38    40     0     0     0
SMALL
NO_CHARGES

@<TRIPOS>ATOM
      1 C1          0.7301   -0.2715    1.7811 C.3       1 UNL1        0.0000
      2 C2          0.8379    1.7324    0.2754 C.3       1 UNL1        0.0000
      3 C3          1.8335   -0.4482   -0.4653 C.3       1 UNL1        0.0000
      4 C4         -1.3593    0.5924    0.6911 C.3       1 UNL1        0.0000
      5 C5         -0.3607   -1.5948   -0.0517 C.3       1 UNL1        0.0000
      6 C6         -0.2525    0.4152   -1.5620 C.3       1 UNL1        0.0000
      7 C7         -0.0148    0.9960    1.3245 C.3       1 UNL1        0.0000
      8 C8          0.9872   -1.1985    0.5792 C.3       1 UNL1        0.0000
      9 C9          1.0958    0.8183   -0.9363 C.3       1 UNL1        0.0000
     10 C10        -1.0994   -0.3273   -0.5143 C.3       1 UNL1        0.0000
     11 C11        -3.1669    0.5264   -1.5975 C.3       1 UNL1        0.0000
     12 C12        -3.2741   -1.4586   -0.1060 C.3       1 UNL1        0.0000
     13 C13        -2.1809   -1.6335   -2.3311 C.3       1 UNL1        0.0000
     14 N1         -2.3979   -0.7136   -1.1220 N.4       1 UNL1        0.0000
     15 H1          1.6822    0.0035    2.2513 H         1 UNL1        0.0000
     16 H2          0.1402   -0.7988    2.5409 H         1 UNL1        0.0000
     17 H3          0.3256    2.6467   -0.0482 H         1 UNL1        0.0000
     18 H4          1.7919    2.0419    0.7196 H         1 UNL1        0.0000
     19 H5          2.8047   -0.1764   -0.0338 H         1 UNL1        0.0000
     20 H6          2.0372   -1.1027   -1.3216 H         1 UNL1        0.0000
     21 H7         -1.9827    0.0839    1.4378 H         1 UNL1        0.0000
     22 H8         -1.9069    1.4914    0.3801 H         1 UNL1        0.0000
     23 H9         -0.1885   -2.2722   -0.8980 H         1 UNL1        0.0000
     24 H10        -0.9636   -2.1483    0.6798 H         1 UNL1        0.0000
     25 H11        -0.7774    1.3106   -1.9192 H         1 UNL1        0.0000
     26 H12        -0.0781   -0.2211   -2.4392 H         1 UNL1        0.0000
     27 H13        -0.1924    1.6516    2.1842 H         1 UNL1        0.0000
     28 H14         1.5191   -2.0970    0.9112 H         1 UNL1        0.0000
     29 H15         1.7046    1.3480   -1.6774 H         1 UNL1        0.0000
     30 H16        -4.1086    0.1884   -2.0337 H         1 UNL1        0.0000
     31 H17        -3.3429    1.1639   -0.7289 H         1 UNL1        0.0000
     32 H18        -2.5511    1.0368   -2.3406 H         1 UNL1        0.0000
     33 H19        -4.2117   -1.7185   -0.6008 H         1 UNL1        0.0000
     34 H20        -2.7343   -2.3541    0.2077 H         1 UNL1        0.0000
     35 H21        -3.4487   -0.7895    0.7388 H         1 UNL1        0.0000
     36 H22        -3.1615   -1.8865   -2.7384 H         1 UNL1        0.0000
     37 H23        -1.5808   -1.0885   -3.0622 H         1 UNL1        0.0000
     38 H24        -1.6588   -2.5265   -1.9821 H         1 UNL1        0.0000
@<TRIPOS>BOND
     1    1    7 1
     2    1    8 1
     3    2    7 1
     4    2    9 1
     5    3    8 1
     6    3    9 1
     7    4    7 1
     8    4   10 1
     9    5    8 1
    10    5   10 1
    11    6    9 1
    12    6   10 1
    13   10   14 1
    14   11   14 1
    15   12   14 1
    16   13   14 1
    17    1   15 1
    18    1   16 1
    19    2   17 1
    20    2   18 1
    21    3   19 1
    22    3   20 1
    23    4   21 1
    24    4   22 1
    25    5   23 1
    26    5   24 1
    27    6   25 1
    28    6   26 1
    29    7   27 1
    30    8   28 1
    31    9   29 1
    32   11   30 1
    33   11   31 1
    34   11   32 1
    35   12   33 1
    36   12   34 1
    37   12   35 1
    38   13   36 1
    39   13   37 1
    40   13   38 1
