F709
  -OEChem-12061918443D

 29 30  0     0  0  0  0  0  0999 V2000
  -18.9546   14.2841   29.6548 C   0  0  0  0  0  0  0  0  0  0  0  0
  -19.7631   14.2783   28.4932 C   0  0  0  0  0  0  0  0  0  0  0  0
  -18.0097   13.3023   29.4673 C   0  0  0  0  0  0  0  0  0  0  0  0
  -19.2545   13.2936   27.6786 C   0  0  0  0  0  0  0  0  0  0  0  0
  -19.6666   12.8173   26.3483 C   0  0  0  0  0  0  0  0  0  0  0  0
  -15.5889   12.8418   22.3918 C   0  0  0  0  0  0  0  0  0  0  0  0
  -17.6964   13.9339   25.2083 C   0  0  0  0  0  0  0  0  0  0  0  0
  -18.8465   11.9734   24.1804 C   0  0  0  0  0  0  0  0  0  0  0  0
  -17.1936   14.1164   23.7804 C   0  0  0  0  0  0  0  0  0  0  0  0
  -17.4836   11.6476   23.5794 C   0  0  0  0  0  0  0  0  0  0  0  0
  -18.7418   12.9055   25.3026 N   0  0  0  0  0  0  0  0  0  0  0  0
  -16.7206   12.8500   23.2186 N   0  0  0  0  0  0  0  0  0  0  0  0
  -14.8325   11.6869   22.4311 N   0  0  0  0  0  0  0  0  0  0  0  0
  -20.8089   12.3711   26.2522 O   0  0  0  0  0  0  0  0  0  0  0  0
  -15.2578   13.7876   21.6717 O   0  0  0  0  0  0  0  0  0  0  0  0
  -18.1855   12.6938   28.2651 O   0  0  0  0  0  0  0  0  0  0  0  0
  -19.0491   14.9232   30.5207 H   0  0  0  0  0  0  0  0  0  0  0  0
  -20.6105   14.9145   28.2804 H   0  0  0  0  0  0  0  0  0  0  0  0
  -17.1878   12.9321   30.0627 H   0  0  0  0  0  0  0  0  0  0  0  0
  -16.8612   13.6780   25.8692 H   0  0  0  0  0  0  0  0  0  0  0  0
  -18.1309   14.8675   25.5863 H   0  0  0  0  0  0  0  0  0  0  0  0
  -19.4932   12.4025   23.4080 H   0  0  0  0  0  0  0  0  0  0  0  0
  -19.3303   11.0618   24.5508 H   0  0  0  0  0  0  0  0  0  0  0  0
  -18.0002   14.5061   23.1603 H   0  0  0  0  0  0  0  0  0  0  0  0
  -16.3616   14.8213   23.7541 H   0  0  0  0  0  0  0  0  0  0  0  0
  -16.9023   11.0346   24.2855 H   0  0  0  0  0  0  0  0  0  0  0  0
  -17.5948   11.0457   22.6627 H   0  0  0  0  0  0  0  0  0  0  0  0
  -15.1361   10.9350   23.0412 H   0  0  0  0  0  0  0  0  0  0  0  0
  -13.9910   11.5496   21.8839 H   0  0  0  0  0  0  0  0  0  0  0  0
  1  2  1  0  0  0  0
  1  3  2  0  0  0  0
  2  4  2  0  0  0  0
  3 16  1  0  0  0  0
  4  5  1  0  0  0  0
  4 16  1  0  0  0  0
  5 11  1  0  0  0  0
  5 14  2  0  0  0  0
  6 12  1  0  0  0  0
  6 13  1  0  0  0  0
  6 15  2  0  0  0  0
  7  9  1  0  0  0  0
  7 11  1  0  0  0  0
  8 10  1  0  0  0  0
  8 11  1  0  0  0  0
  9 12  1  0  0  0  0
 10 12  1  0  0  0  0
  1 17  1  0  0  0  0
  2 18  1  0  0  0  0
  3 19  1  0  0  0  0
  7 20  1  0  0  0  0
  7 21  1  0  0  0  0
  8 22  1  0  0  0  0
  8 23  1  0  0  0  0
  9 24  1  0  0  0  0
  9 25  1  0  0  0  0
 10 26  1  0  0  0  0
 10 27  1  0  0  0  0
 13 28  1  0  0  0  0
 13 29  1  0  0  0  0
M  END
> <Chemgauss4>
-8.086299896240234

> <Chemgauss4>
-8.086300

$$$$
