@<TRIPOS>MOLECULE
****
35 37 1 0 0 
SMALL
USER_CHARGES


@<TRIPOS>ATOM
  1 C      -10.6745     0.0065    -1.8719 C.3   1 <1>   0.0000 
  2 C      -11.1578    -1.4509    -1.7358 C.3   1 <1>   0.0000 
  3 C      -10.4715    -2.1192    -0.5283 C.3   1 <1>   0.0000 
  4 C       -8.9449    -2.1020    -0.7286 C.3   1 <1>   0.0000 
  5 C       -8.4581    -0.6470    -0.8595 C.3   1 <1>   0.0000 
  6 C       -9.1457     0.0169    -2.0690 C.3   1 <1>   0.0000 
  7 C      -11.0298     0.7878    -0.5898 C.3   1 <1>   0.0000 
  8 C      -10.8239    -1.3332     0.7494 C.3   1 <1>   0.0000 
  9 C       -8.8252     0.1334     0.4185 C.3   1 <1>   0.0000 
 10 C      -10.3600     0.1466     0.6553 C.3   1 <1>   0.0000 
 11 C      -10.7159     0.8725     1.9871 C.3   1 <1>   0.0000 
 12 C      -10.2117     2.3216     2.0961 C.3   1 <1>   0.0000 
 13 N      -12.1682     0.8514     2.2530 N.4   1 <1>   1.0000 
 14 H      -11.1575     0.4737    -2.7309 H     1 <1>   0.0000 
 15 H      -12.2403    -1.4681    -1.5999 H     1 <1>   0.0000 
 16 H      -10.9194    -2.0034    -2.6460 H     1 <1>   0.0000 
 17 H      -10.8173    -3.1492    -0.4330 H     1 <1>   0.0000 
 18 H       -8.4562    -2.5787     0.1227 H     1 <1>   0.0000 
 19 H       -8.6850    -2.6602    -1.6294 H     1 <1>   0.0000 
 20 H       -7.3765    -0.6337    -0.9995 H     1 <1>   0.0000 
 21 H       -8.7955     1.0449    -2.1731 H     1 <1>   0.0000 
 22 H       -8.8890    -0.5245    -2.9809 H     1 <1>   0.0000 
 23 H      -10.6962     1.8195    -0.7057 H     1 <1>   0.0000 
 24 H      -12.1142     0.7946    -0.4699 H     1 <1>   0.0000 
 25 H      -11.9041    -1.3829     0.8930 H     1 <1>   0.0000 
 26 H      -10.3500    -1.8120     1.6081 H     1 <1>   0.0000 
 27 H       -8.3249    -0.3206     1.2756 H     1 <1>   0.0000 
 28 H       -8.4507     1.1511     0.3084 H     1 <1>   0.0000 
 29 H      -10.2383     0.3119     2.7905 H     1 <1>   0.0000 
 30 H      -10.5202     2.7380     3.0557 H     1 <1>   0.0000 
 31 H       -9.1242     2.3561     2.0540 H     1 <1>   0.0000 
 32 H      -10.6310     2.9371     1.3006 H     1 <1>   0.0000 
 33 H      -12.3531     1.2755     3.1507 H     1 <1>   0.0000 
 34 H      -12.4955    -0.1039     2.2573 H     1 <1>   0.0000 
 35 H      -12.6489     1.3681     1.5307 H     1 <1>   0.0000 
@<TRIPOS>BOND
  1   1   2  1   
  2   1   6  1   
  3   1   7  1   
  4   1  14  1   
  5   2   3  1   
  6   2  15  1   
  7   2  16  1   
  8   3   4  1   
  9   3   8  1   
 10   3  17  1   
 11   4   5  1   
 12   4  18  1   
 13   4  19  1   
 14   5   6  1   
 15   5   9  1   
 16   5  20  1   
 17   6  21  1   
 18   6  22  1   
 19   7  10  1   
 20   7  23  1   
 21   7  24  1   
 22   8  10  1   
 23   8  25  1   
 24   8  26  1   
 25   9  10  1   
 26   9  27  1   
 27   9  28  1   
 28  10  11  1   
 29  11  12  1   
 30  11  13  1   
 31  11  29  1   
 32  12  30  1   
 33  12  31  1   
 34  12  32  1   
 35  13  33  1   
 36  13  34  1   
 37  13  35  1   
@<TRIPOS>SUBSTRUCTURE
  1 ****  10 GROUP 4 **** **** 0

# MOE 2018.01 (io_trps.svl 2018.01)
