@<TRIPOS>MOLECULE
Cpptraj
  188   207     0     0     0
SMALL
USER_CHARGES

@<TRIPOS>ATOM
      1 C1         -1.9120   31.1190   28.3730 C.3       1 <0>         0.0760
      2 N1          1.4400   29.4370   22.7780 N.am      1 <0>        -0.4580
      3 O1          7.0770   33.0140   28.4500 O.3       1 <0>        -0.7590
      4 S1          6.6590   31.6430   28.5620 S.o2      1 <0>         1.4240
      5 C2         -1.4240   32.5180   28.6930 C.ar      1 <0>        -0.0700
      6 N2         -0.9020   29.4350   22.5240 N.am      1 <0>        -0.4580
      7 O2          6.6160   31.2440   29.9250 O.2       1 <0>        -0.7590
      8 S2         -6.8580   31.9580   25.2610 S.o2      1 <0>         1.4240
      9 C3         -2.2460   33.6250   28.5660 C.ar      1 <0>        -0.1140
     10 N3          1.6490   29.4500   20.5980 N.am      1 <0>        -0.5090
     11 O3          7.3830   30.7970   27.7350 O.2       1 <0>        -0.7590
     12 S3         -4.9340   18.1670   21.5330 S.o2      1 <0>         1.4240
     13 C4         -1.7760   34.9230   28.9400 C.ar      1 <0>        -0.1390
     14 N4         -0.8480   29.3910   20.3020 N.am      1 <0>        -0.5090
     15 O4          2.5910   30.4930   26.5720 O.3       1 <0>        -0.3500
     16 S4          8.1880   20.9840   23.1580 S.o2      1 <0>         1.4240
     17 C5         -0.4170   35.0620   29.2260 C.ar      1 <0>        -0.1390
     18 N5          2.1380   27.8800   18.7580 N.am      1 <0>        -0.5040
     19 O5         -2.9060   29.9710   25.7880 O.3       1 <0>        -0.3500
     20 C6          0.4430   33.9550   29.2310 C.ar      1 <0>        -0.1140
     21 N6         -0.2640   27.5960   18.6910 N.am      1 <0>        -0.5040
     22 O6         -6.8760   30.6280   24.6930 O.3       1 <0>        -0.7590
     23 C7         -0.0300   32.6870   28.8780 C.ar      1 <0>        -0.0700
     24 N7          0.4600   21.4530   20.1520 N.am      1 <0>        -0.4580
     25 O7         -6.9320   33.0520   24.3460 O.2       1 <0>        -0.7590
     26 C8          0.7510   31.4280   28.7340 C.3       1 <0>         0.0770
     27 N8          2.6570   22.1780   20.5210 N.am      1 <0>        -0.4580
     28 O8         -7.7980   32.1440   26.3670 O.2       1 <0>        -0.7590
     29 C9          0.0190   30.4650   29.7460 C.ar      1 <0>        -0.0700
     30 N9          0.2820   23.1070   18.7090 N.am      1 <0>        -0.5090
     31 O9          3.2650   28.3570   21.8380 O.2       1 <0>        -0.5880
     32 C10         0.6040   29.6750   30.7740 C.ar      1 <0>        -0.1140
     33 N10         2.5740   23.5480   18.7000 N.am      1 <0>        -0.5090
     34 O10        -2.4390   28.1020   21.4470 O.2       1 <0>        -0.5880
     35 C11        -0.1810   28.8020   31.5770 C.ar      1 <0>        -0.1390
     36 N11        -0.0160   25.4920   18.0960 N.am      1 <0>        -0.5040
     37 O11         4.0700   26.8220   19.4070 O.2       1 <0>        -0.5810
     38 C12        -1.5830   28.7420   31.4670 C.ar      1 <0>        -0.1390
     39 N12         2.4320   25.8410   18.0990 N.am      1 <0>        -0.5040
     40 O12        -5.4050   16.7980   21.5630 O.2       1 <0>        -0.7590
     41 C13        -2.1660   29.4440   30.4420 C.ar      1 <0>        -0.1140
     42 O13        -5.9780   19.0910   21.7780 O.2       1 <0>        -0.7590
     43 C14        -1.3950   30.2850   29.5740 C.ar      1 <0>        -0.0700
     44 O14        -4.1510   18.4960   20.3310 O.3       1 <0>        -0.7590
     45 C15         0.3630   30.7830   27.3810 C.ar      1 <0>        -0.0870
     46 O15        -1.5720   21.3680   23.5230 O.3       1 <0>        -0.3500
     47 C16        -1.0280   30.6720   27.1990 C.ar      1 <0>        -0.0870
     48 O16         3.8220   22.4190   24.3600 O.3       1 <0>        -0.3500
     49 C17         4.8860   31.6790   28.0830 C.3       1 <0>        -0.2980
     50 O17         8.3860   20.1030   22.0070 O.2       1 <0>        -0.7590
     51 C18         4.6970   31.5870   26.5390 C.3       1 <0>        -0.0330
     52 O18         8.1520   22.4130   22.7810 O.3       1 <0>        -0.7590
     53 C19         3.1970   31.7170   26.1710 C.3       1 <0>         0.1200
     54 O19         9.0030   20.5900   24.3350 O.2       1 <0>        -0.7590
     55 C20         1.2400   30.3220   26.3980 C.ar      1 <0>         0.1310
     56 O20        -1.4990   22.7210   20.0750 O.2       1 <0>        -0.5880
     57 C21        -1.5710   30.0780   25.9810 C.ar      1 <0>         0.1310
     58 O21         3.9320   24.1310   20.4620 O.2       1 <0>        -0.5880
     59 C22        -3.5830   30.6640   24.6840 C.3       1 <0>         0.1200
     60 O22        -1.8610   26.1070   19.2600 O.2       1 <0>        -0.5810
     61 C23        -3.9860   32.0610   25.1560 C.3       1 <0>        -0.0330
     62 C24        -5.2760   32.1260   26.1150 C.3       1 <0>        -0.2980
     63 C25         1.7200   29.0930   24.2090 C.3       1 <0>         0.1370
     64 C26         0.7650   29.6160   25.2560 C.ar      1 <0>        -0.1080
     65 C27        -0.6910   29.5220   25.0500 C.ar      1 <0>        -0.1080
     66 C28        -1.1750   28.7490   23.8230 C.3       1 <0>         0.1370
     67 C29         2.2390   29.0190   21.7390 C.2       1 <0>         0.8050
     68 C30         0.2410   30.2080   22.2600 C.3       1 <0>         0.2400
     69 C31         0.0650   31.6630   22.8610 C.3       1 <0>        -0.0840
     70 C32        -1.4890   28.9340   21.3940 C.2       1 <0>         0.8050
     71 C33         2.3090   29.2410   19.3050 C.3       1 <0>         0.2970
     72 C34         0.3060   30.1620   20.6550 C.3       1 <0>         0.2530
     73 C35         0.2820   31.5350   19.9100 C.3       1 <0>        -0.0950
     74 C36        -1.0510   28.8330   18.9090 C.3       1 <0>         0.2970
     75 C37         3.0600   26.8340   18.7830 C.2       1 <0>         0.8110
     76 C38         0.9980   27.6180   17.9690 C.3       1 <0>         0.2420
     77 C39        -0.8360   22.6580   26.0080 C.3       1 <0>         0.0770
     78 C40        -0.3260   21.8750   27.2100 C.ar      1 <0>        -0.0700
     79 C41        -1.0790   20.9440   28.0050 C.ar      1 <0>        -0.1140
     80 C42        -0.3390   20.2790   29.0270 C.ar      1 <0>        -0.1390
     81 C43         1.0350   20.6740   29.3150 C.ar      1 <0>        -0.1390
     82 C44         1.6970   21.4980   28.4620 C.ar      1 <0>        -0.1140
     83 C45         1.0540   22.0710   27.4190 C.ar      1 <0>        -0.0700
     84 C46         1.7250   23.0940   26.5050 C.3       1 <0>         0.0770
     85 C47         0.8600   24.3800   26.6170 C.ar      1 <0>        -0.0700
     86 C48         1.2020   25.7190   26.9150 C.ar      1 <0>        -0.1140
     87 C49         0.1900   26.7110   26.9670 C.ar      1 <0>        -0.1390
     88 C50        -1.1500   26.3900   26.5970 C.ar      1 <0>        -0.1390
     89 C51        -1.5200   25.0540   26.3580 C.ar      1 <0>        -0.1140
     90 C52        -0.5110   24.1030   26.3650 C.ar      1 <0>        -0.0700
     91 C53         0.1080   22.2530   24.8690 C.ar      1 <0>        -0.0870
     92 C54         1.4540   22.4470   25.1380 C.ar      1 <0>        -0.0870
     93 C55        -3.8000   18.4230   22.8770 C.3       1 <0>        -0.2980
     94 C56        -3.4320   19.9310   23.0190 C.3       1 <0>        -0.0330
     95 C57        -2.1280   20.0710   23.8440 C.3       1 <0>         0.1200
     96 C58        -0.2530   21.6640   23.6750 C.ar      1 <0>         0.1310
     97 C59         2.4540   22.1910   24.1460 C.ar      1 <0>         0.1310
     98 C60         4.6140   21.5580   25.2130 C.3       1 <0>         0.1200
     99 C61         6.0210   21.7490   24.7830 C.3       1 <0>        -0.0330
    100 C62         6.3750   20.8800   23.5510 C.3       1 <0>        -0.2980
    101 C63         0.2050   20.7020   21.3870 C.3       1 <0>         0.1370
    102 C64         0.6790   21.3580   22.6770 C.ar      1 <0>        -0.1080
    103 C65         2.0520   21.7420   22.8800 C.ar      1 <0>        -0.1080
    104 C66         3.0890   21.6160   21.7930 C.3       1 <0>         0.1370
    105 C67        -0.3350   22.5100   19.7330 C.2       1 <0>         0.8050
    106 C68         1.7830   21.5190   19.5930 C.3       1 <0>         0.2400
    107 C69         2.2540   20.0560   19.2000 C.3       1 <0>        -0.0840
    108 C70         3.1440   23.3750   19.9560 C.2       1 <0>         0.8050
    109 C71        -0.3070   24.0940   17.8040 C.3       1 <0>         0.2970
    110 C72         1.5970   22.5580   18.4230 C.3       1 <0>         0.2530
    111 C73         1.7160   21.8940   17.0120 C.3       1 <0>        -0.0950
    112 C74         3.0460   24.5490   17.7710 C.3       1 <0>         0.2970
    113 C75        -0.7640   26.3710   18.8170 C.2       1 <0>         0.8110
    114 C76         1.1420   26.1970   17.5040 C.3       1 <0>         0.2420
    115 H1         -2.9780   31.0870   28.1160 H         1 <0>         0.0990
    116 H2         -3.2080   33.5220   28.0720 H         1 <0>         0.1380
    117 H3         -2.3530   35.8430   28.9480 H         1 <0>         0.1230
    118 H4         -0.0310   36.0590   29.4140 H         1 <0>         0.1230
    119 H5          1.4940   34.1000   29.4640 H         1 <0>         0.1380
    120 H6          1.8330   31.4910   28.9080 H         1 <0>         0.0990
    121 H7          1.6820   29.7730   30.8530 H         1 <0>         0.1380
    122 H8          0.3430   28.2520   32.3530 H         1 <0>         0.1230
    123 H9         -2.1440   28.0390   32.0750 H         1 <0>         0.1230
    124 H10         0.5740   19.6730   21.2990 H         1 <0>         0.0910
    125 H11        -0.8810   20.5800   21.4790 H         1 <0>         0.0910
    126 H12         3.8880   22.3240   22.0440 H         1 <0>         0.0910
    127 H13         3.4020   20.5760   21.6420 H         1 <0>         0.0910
    128 H14        -3.2310   29.3840   30.2420 H         1 <0>         0.1380
    129 H15         4.3350   30.8660   28.5720 H         1 <0>         0.0770
    130 H16         4.6220   32.6640   28.4880 H         1 <0>         0.0770
    131 H17         5.1330   32.4780   26.0700 H         1 <0>         0.0530
    132 H18         5.0730   30.6800   26.0510 H         1 <0>         0.0530
    133 H19         2.7470   32.5110   26.7800 H         1 <0>         0.0450
    134 H20         3.0580   31.7930   25.0850 H         1 <0>         0.0450
    135 H21        -2.9650   30.7160   23.7790 H         1 <0>         0.0450
    136 H22        -4.4930   30.1110   24.4210 H         1 <0>         0.0450
    137 H23        -3.1340   32.4720   25.7110 H         1 <0>         0.0530
    138 H24        -4.1030   32.6010   24.2090 H         1 <0>         0.0530
    139 H25        -5.3690   31.3340   26.8680 H         1 <0>         0.0770
    140 H26        -5.3740   33.1450   26.5100 H         1 <0>         0.0770
    141 H27         2.7210   29.4280   24.5110 H         1 <0>         0.0910
    142 H28         1.6160   28.0050   24.3000 H         1 <0>         0.0910
    143 H29        -0.7720   27.7290   23.8350 H         1 <0>         0.0910
    144 H30        -2.2710   28.7560   23.7680 H         1 <0>         0.0910
    145 H31         0.9930   32.1990   22.6280 H         1 <0>         0.0490
    146 H32        -0.7280   32.2440   22.3740 H         1 <0>         0.0490
    147 H33        -0.0350   31.6290   23.9530 H         1 <0>         0.0490
    148 H34         2.0810   30.0320   18.5800 H         1 <0>         0.0750
    149 H35         3.3600   29.3810   19.5800 H         1 <0>         0.0750
    150 H36         0.3610   31.3860   18.8260 H         1 <0>         0.0460
    151 H37        -0.6670   32.0670   20.0550 H         1 <0>         0.0460
    152 H38         1.0690   32.2190   20.2510 H         1 <0>         0.0460
    153 H39        -2.0940   28.5340   18.7550 H         1 <0>         0.0750
    154 H40        -0.6380   29.5630   18.2030 H         1 <0>         0.0750
    155 H41         0.8730   28.2640   17.0920 H         1 <0>         0.0540
    156 H42        -1.8760   22.5020   25.6960 H         1 <0>         0.0990
    157 H43        -2.1420   20.7710   27.8580 H         1 <0>         0.1380
    158 H44        -0.8330   19.5310   29.6400 H         1 <0>         0.1230
    159 H45         1.5340   20.2200   30.1650 H         1 <0>         0.1230
    160 H46         2.6630   21.9010   28.7530 H         1 <0>         0.1380
    161 H47         2.7530   23.2990   26.8280 H         1 <0>         0.0990
    162 H48         2.1860   26.0070   27.2730 H         1 <0>         0.1380
    163 H49         0.5560   27.7070   27.1960 H         1 <0>         0.1230
    164 H50        -1.9310   27.1420   26.5360 H         1 <0>         0.1230
    165 H51        -2.5670   24.8610   26.1450 H         1 <0>         0.1380
    166 H52        -4.2350   18.2990   23.8760 H         1 <0>         0.0770
    167 H53        -2.9150   17.7910   22.7330 H         1 <0>         0.0770
    168 H54        -3.3210   20.3260   22.0010 H         1 <0>         0.0530
    169 H55        -4.2270   20.5650   23.4300 H         1 <0>         0.0530
    170 H56        -2.3930   20.0200   24.9070 H         1 <0>         0.0450
    171 H57        -1.4370   19.2720   23.5470 H         1 <0>         0.0450
    172 H58         4.4710   21.9560   26.2250 H         1 <0>         0.0450
    173 H59         4.2820   20.5160   25.1220 H         1 <0>         0.0450
    174 H60         6.1400   22.8300   24.6420 H         1 <0>         0.0530
    175 H61         6.6230   21.4560   25.6520 H         1 <0>         0.0530
    176 H62         6.1300   19.8250   23.7270 H         1 <0>         0.0770
    177 H63         5.8130   21.2480   22.6830 H         1 <0>         0.0770
    178 H64         3.1710   20.1060   18.5990 H         1 <0>         0.0490
    179 H65         2.3350   19.4020   20.0770 H         1 <0>         0.0490
    180 H66         1.4160   19.6590   18.6140 H         1 <0>         0.0490
    181 H67         0.0080   23.9490   16.7640 H         1 <0>         0.0750
    182 H68        -1.3970   24.0140   17.8840 H         1 <0>         0.0750
    183 H69         1.5640   22.6290   16.2120 H         1 <0>         0.0460
    184 H70         2.7200   21.4520   16.9890 H         1 <0>         0.0460
    185 H71         1.0160   21.0770   16.7970 H         1 <0>         0.0460
    186 H72         4.1240   24.6510   17.9420 H         1 <0>         0.0750
    187 H73         2.7210   24.1650   16.7970 H         1 <0>         0.0750
    188 H74         1.2700   26.0900   16.4200 H         1 <0>         0.0540
@<TRIPOS>BOND
     1    1    5 1
     2    1   43 1
     3    1   47 1
     4    1  115 1
     5    2   63 1
     6    2   67 am
     7    2   68 1
     8    3    4 1
     9    4    7 2
    10    4   11 2
    11    4   49 1
    12    5    9 ar
    13    5   23 ar
    14    6   66 1
    15    6   68 1
    16    6   70 am
    17    8   22 1
    18    8   25 2
    19    8   28 2
    20    8   62 1
    21    9   13 ar
    22    9  116 1
    23   10   67 am
    24   10   71 1
    25   10   72 1
    26   12   40 2
    27   12   42 2
    28   12   44 1
    29   12   93 1
    30   13   17 ar
    31   13  117 1
    32   14   70 am
    33   14   72 1
    34   14   74 1
    35   15   53 1
    36   15   55 1
    37   16   50 2
    38   16   52 1
    39   16   54 2
    40   16  100 1
    41   17   20 ar
    42   17  118 1
    43   18   71 1
    44   18   75 am
    45   18   76 1
    46   19   57 1
    47   19   59 1
    48   20   23 ar
    49   20  119 1
    50   21   74 1
    51   21   76 1
    52   21  113 am
    53   23   26 1
    54   24  101 1
    55   24  105 am
    56   24  106 1
    57   26   29 1
    58   26   45 1
    59   26  120 1
    60   27  104 1
    61   27  106 1
    62   27  108 am
    63   29   32 ar
    64   29   43 ar
    65   30  105 am
    66   30  109 1
    67   30  110 1
    68   31   67 2
    69   32   35 ar
    70   32  121 1
    71   33  108 am
    72   33  110 1
    73   33  112 1
    74   34   70 2
    75   35   38 ar
    76   35  122 1
    77   36  109 1
    78   36  113 am
    79   36  114 1
    80   37   75 2
    81   38   41 ar
    82   38  123 1
    83   39   75 am
    84   39  112 1
    85   39  114 1
    86   41   43 ar
    87   41  128 1
    88   45   47 ar
    89   45   55 ar
    90   46   95 1
    91   46   96 1
    92   47   57 ar
    93   48   97 1
    94   48   98 1
    95   49   51 1
    96   49  129 1
    97   49  130 1
    98   51   53 1
    99   51  131 1
   100   51  132 1
   101   53  133 1
   102   53  134 1
   103   55   64 ar
   104   56  105 2
   105   57   65 ar
   106   58  108 2
   107   59   61 1
   108   59  135 1
   109   59  136 1
   110   61   62 1
   111   61  137 1
   112   61  138 1
   113   62  139 1
   114   62  140 1
   115   63   64 1
   116   63  141 1
   117   63  142 1
   118   64   65 ar
   119   65   66 1
   120   66  143 1
   121   66  144 1
   122   68   69 1
   123   68   72 1
   124   69  145 1
   125   69  146 1
   126   69  147 1
   127   71  148 1
   128   71  149 1
   129   72   73 1
   130   73  150 1
   131   73  151 1
   132   73  152 1
   133   74  153 1
   134   74  154 1
   135   76  114 1
   136   76  155 1
   137   77   78 1
   138   77   90 1
   139   77   91 1
   140   77  156 1
   141   78   79 ar
   142   78   83 ar
   143   79   80 ar
   144   79  157 1
   145   80   81 ar
   146   80  158 1
   147   81   82 ar
   148   81  159 1
   149   82   83 ar
   150   82  160 1
   151   83   84 1
   152   84   85 1
   153   84   92 1
   154   84  161 1
   155   85   86 ar
   156   85   90 ar
   157   86   87 ar
   158   86  162 1
   159   87   88 ar
   160   87  163 1
   161   88   89 ar
   162   88  164 1
   163   89   90 ar
   164   89  165 1
   165   91   92 ar
   166   91   96 ar
   167   92   97 ar
   168   93   94 1
   169   93  166 1
   170   93  167 1
   171   94   95 1
   172   94  168 1
   173   94  169 1
   174   95  170 1
   175   95  171 1
   176   96  102 ar
   177   97  103 ar
   178   98   99 1
   179   98  172 1
   180   98  173 1
   181   99  100 1
   182   99  174 1
   183   99  175 1
   184  100  176 1
   185  100  177 1
   186  101  102 1
   187  101  124 1
   188  101  125 1
   189  102  103 ar
   190  103  104 1
   191  104  126 1
   192  104  127 1
   193  106  107 1
   194  106  110 1
   195  107  178 1
   196  107  179 1
   197  107  180 1
   198  109  181 1
   199  109  182 1
   200  110  111 1
   201  111  183 1
   202  111  184 1
   203  111  185 1
   204  112  186 1
   205  112  187 1
   206   60  113 2
   207  114  188 1
